8AM7
     RDKit          3D

 42 43  0  0  0  0  0  0  0  0999 V2000
   12.5550    8.1300   14.7230 N   0  0  0  0  0  0  0  0  0  0  0  0
   13.6120    9.1780   14.5770 C   0  0  2  0  0  0  0  0  0  0  0  0
   13.0900   10.4060   13.8410 C   0  0  0  0  0  0  0  0  0  0  0  0
   12.3260   10.2910   12.8870 O   0  0  0  0  0  0  0  0  0  0  0  0
   14.8220    8.6050   13.8460 C   0  0  0  0  0  0  0  0  0  0  0  0
   15.4880    7.4930   14.5970 C   0  0  0  0  0  0  0  0  0  0  0  0
   16.4360    7.7710   15.5720 C   0  0  0  0  0  0  0  0  0  0  0  0
   15.1450    6.1650   14.3520 C   0  0  0  0  0  0  0  0  0  0  0  0
   17.0470    6.7390   16.2740 C   0  0  0  0  0  0  0  0  0  0  0  0
   15.7540    5.1290   15.0510 C   0  0  0  0  0  0  0  0  0  0  0  0
   16.7030    5.4180   16.0150 C   0  0  0  0  0  0  0  0  0  0  0  0
   13.4870   11.6250   14.2570 N   0  0  0  0  0  0  0  0  0  0  0  0
   12.9260   12.8360   13.6650 C   0  0  2  0  0  0  0  0  0  0  0  0
   13.5240   13.1730   12.2900 C   0  0  0  0  0  0  0  0  0  0  0  0
   14.5910   12.7080   11.9530 O   0  0  0  0  0  0  0  0  0  0  0  0
   13.2720   13.9080   14.6990 C   0  0  0  0  0  0  0  0  0  0  0  0
   14.5730   13.4250   15.2820 C   0  0  0  0  0  0  0  0  0  0  0  0
   14.4710   11.9150   15.3120 C   0  0  0  0  0  0  0  0  0  0  0  0
   12.7990   13.9850   11.5270 N   0  0  0  0  0  0  0  0  0  0  0  0
   13.2000   14.4020   10.2070 C   0  0  2  0  0  0  0  0  0  0  0  0
   14.3110   15.4290   10.2430 C   0  0  0  0  0  0  0  0  0  0  0  0
   14.2350   16.4110   10.9900 O   0  0  0  0  0  0  0  0  0  0  0  0
   12.0260   15.0030    9.4770 C   0  0  0  0  0  0  0  0  0  0  0  0
   15.3260   15.1840    9.4140 N   0  0  0  0  0  0  0  0  0  0  0  0
   16.4050   16.1380    9.0640 C   0  0  1  0  0  0  0  0  0  0  0  0
   17.6990   15.8120    9.8190 C   0  0  1  0  0  0  0  0  0  0  0  0
   17.5450   15.9410   11.3160 C   0  0  0  0  0  0  0  0  0  0  0  0
   18.0230   14.4330    9.4820 O   0  0  0  0  0  0  0  0  0  0  0  0
   19.4280   13.7570    9.8830 P   0  0  0  0  0  0  0  0  0  0  0  0
   19.4900   12.5380    8.9830 O   0  0  0  0  0  0  0  0  0  0  0  0
   19.4010   13.4070   11.3540 O   0  0  0  0  0  0  0  0  0  0  0  0
   20.5090   14.7860    9.5640 O   0  0  0  0  0  0  0  0  0  0  0  0
   16.6060   16.1390    7.5490 C   0  0  0  0  0  0  0  0  0  0  0  0
   16.2200   15.1650    6.8890 O   0  0  0  0  0  0  0  0  0  0  0  0
   17.1950   17.2080    7.0280 N   0  0  0  0  0  0  0  0  0  0  0  0
   17.4870   17.3150    5.6120 C   0  0  2  0  0  0  0  0  0  0  0  0
   18.9340   17.6170    5.3330 C   0  0  0  0  0  0  0  0  0  0  0  0
   19.6900   18.0280    6.2310 O   0  0  0  0  0  0  0  0  0  0  0  0
   16.6320   18.3800    4.9210 C   0  0  0  0  0  0  0  0  0  0  0  0
   15.1770   17.9820    5.0030 C   0  0  0  0  0  0  0  0  0  0  0  0
   16.8780   19.7630    5.5260 C   0  0  0  0  0  0  0  0  0  0  0  0
   19.3330   17.4690    4.1630 O   0  0  0  0  0  0  0  0  0  0  0  0
  2  1  1  6
  3  2  1  0
  4  3  2  0
  5  2  1  0
  6  5  1  0
  7  6  2  0
  8  6  1  0
  9  7  1  0
 10  8  2  0
 11 10  1  0
 11  9  2  0
 12  3  1  0
 13 12  1  0
 13 14  1  6
 15 14  2  0
 16 13  1  0
 17 16  1  0
 18 17  1  0
 18 12  1  0
 19 14  1  0
 20 19  1  0
 21 20  1  0
 22 21  2  0
 20 23  1  1
 24 21  1  0
 25 24  1  6
 26 25  1  0
 26 27  1  1
 28 26  1  0
 29 28  1  0
 30 29  1  0
 31 29  1  0
 32 29  1  0
 33 25  1  0
 34 33  1  0
 35 33  1  0
 36 35  1  1
 37 36  1  0
 38 37  2  0
 39 36  1  0
 40 39  1  0
 41 39  1  0
 42 37  1  0
M  END
$$$$
8ALR
     RDKit          3D

 42 43  0  0  0  0  0  0  0  0999 V2000
   12.3450    8.1280   14.8790 N   0  0  0  0  0  0  0  0  0  0  0  0
   13.5010    9.0500   14.6200 C   0  0  2  0  0  0  0  0  0  0  0  0
   13.0360   10.2920   13.8780 C   0  0  0  0  0  0  0  0  0  0  0  0
   12.3030   10.1990   12.8990 O   0  0  0  0  0  0  0  0  0  0  0  0
   14.5740    8.3560   13.8000 C   0  0  0  0  0  0  0  0  0  0  0  0
   15.2750    7.2860   14.5540 C   0  0  0  0  0  0  0  0  0  0  0  0
   16.0760    7.6130   15.6390 C   0  0  0  0  0  0  0  0  0  0  0  0
   15.1280    5.9430   14.2060 C   0  0  0  0  0  0  0  0  0  0  0  0
   16.7370    6.6210   16.3500 C   0  0  0  0  0  0  0  0  0  0  0  0
   15.7900    4.9480   14.9090 C   0  0  0  0  0  0  0  0  0  0  0  0
   16.5920    5.2890   15.9810 C   0  0  0  0  0  0  0  0  0  0  0  0
   13.4480   11.4960   14.3110 N   0  0  0  0  0  0  0  0  0  0  0  0
   12.8930   12.7100   13.7330 C   0  0  2  0  0  0  0  0  0  0  0  0
   13.4720   13.0540   12.3550 C   0  0  0  0  0  0  0  0  0  0  0  0
   14.5340   12.6090   11.9830 O   0  0  0  0  0  0  0  0  0  0  0  0
   13.2370   13.7520   14.7940 C   0  0  0  0  0  0  0  0  0  0  0  0
   14.5620   13.2870   15.3400 C   0  0  0  0  0  0  0  0  0  0  0  0
   14.4580   11.7750   15.3460 C   0  0  0  0  0  0  0  0  0  0  0  0
   12.7310   13.8730   11.6330 N   0  0  0  0  0  0  0  0  0  0  0  0
   13.0980   14.2860   10.3050 C   0  0  2  0  0  0  0  0  0  0  0  0
   14.2150   15.3070   10.2980 C   0  0  0  0  0  0  0  0  0  0  0  0
   14.1710   16.2770   11.0470 O   0  0  0  0  0  0  0  0  0  0  0  0
   11.8960   14.8860    9.6200 C   0  0  0  0  0  0  0  0  0  0  0  0
   15.2140   15.0810    9.4470 N   0  0  0  0  0  0  0  0  0  0  0  0
   16.3050   16.0290    9.1360 C   0  0  1  0  0  0  0  0  0  0  0  0
   17.5920   15.7080    9.9080 C   0  0  1  0  0  0  0  0  0  0  0  0
   17.4230   15.8560   11.4020 C   0  0  0  0  0  0  0  0  0  0  0  0
   17.9310   14.3310    9.5600 O   0  0  0  0  0  0  0  0  0  0  0  0
   19.3490   13.6980    9.9270 P   0  0  0  0  0  0  0  0  0  0  0  0
   19.3960   12.5090    9.0170 O   0  0  0  0  0  0  0  0  0  0  0  0
   19.3360   13.3360   11.3990 O   0  0  0  0  0  0  0  0  0  0  0  0
   20.4090   14.7260    9.6260 O   0  0  0  0  0  0  0  0  0  0  0  0
   16.5230   16.0290    7.6240 C   0  0  0  0  0  0  0  0  0  0  0  0
   16.1210   15.0620    6.9700 O   0  0  0  0  0  0  0  0  0  0  0  0
   17.1020   17.1060    7.1000 N   0  0  0  0  0  0  0  0  0  0  0  0
   17.4180   17.1880    5.6860 C   0  0  2  0  0  0  0  0  0  0  0  0
   18.8650   17.4960    5.4030 C   0  0  0  0  0  0  0  0  0  0  0  0
   19.6500   17.8920    6.2910 O   0  0  0  0  0  0  0  0  0  0  0  0
   16.5530   18.2180    4.9740 C   0  0  0  0  0  0  0  0  0  0  0  0
   15.0930   17.8350    5.1050 C   0  0  0  0  0  0  0  0  0  0  0  0
   16.8170   19.6110    5.5180 C   0  0  0  0  0  0  0  0  0  0  0  0
   19.2610   17.3050    4.2290 O   0  0  0  0  0  0  0  0  0  0  0  0
  2  1  1  6
  3  2  1  0
  4  3  2  0
  5  2  1  0
  6  5  1  0
  7  6  2  0
  8  6  1  0
  9  7  1  0
 10  8  2  0
 11 10  1  0
 11  9  2  0
 12  3  1  0
 13 12  1  0
 13 14  1  6
 15 14  2  0
 16 13  1  0
 17 16  1  0
 18 17  1  0
 18 12  1  0
 19 14  1  0
 20 19  1  0
 21 20  1  0
 22 21  2  0
 20 23  1  1
 24 21  1  0
 25 24  1  6
 26 25  1  0
 26 27  1  1
 28 26  1  0
 29 28  1  0
 30 29  1  0
 31 29  1  0
 32 29  1  0
 33 25  1  0
 34 33  1  0
 35 33  1  0
 36 35  1  1
 37 36  1  0
 38 37  2  0
 39 36  1  0
 40 39  1  0
 41 39  1  0
 42 37  1  0
M  END
$$$$
7RKE
     RDKit          3D

 52 52  0  0  0  0  0  0  0  0999 V2000
    3.5790  -19.3080   -8.8450 N   0  0  0  0  0  0  0  0  0  0  0  0
    2.9050  -18.5050   -9.8520 C   0  0  2  0  0  0  0  0  0  0  0  0
    3.9210  -17.6890  -10.6580 C   0  0  0  0  0  0  0  0  0  0  0  0
    5.0530  -18.1390  -10.8500 O   0  0  0  0  0  0  0  0  0  0  0  0
    1.8680  -17.6050   -9.1910 C   0  0  0  0  0  0  0  0  0  0  0  0
    3.5310  -16.4960  -11.1240 N   0  0  0  0  0  0  0  0  0  0  0  0
    4.4040  -15.7420  -12.0260 C   0  0  2  0  0  0  0  0  0  0  0  0
    5.7540  -15.4780  -11.3680 C   0  0  0  0  0  0  0  0  0  0  0  0
    6.8100  -15.6570  -11.9890 O   0  0  0  0  0  0  0  0  0  0  0  0
    3.7350  -14.4280  -12.4700 C   0  0  2  0  0  0  0  0  0  0  0  0
    2.6380  -14.6980  -13.4900 C   0  0  0  0  0  0  0  0  0  0  0  0
    4.7560  -13.5070  -13.1300 C   0  0  0  0  0  0  0  0  0  0  0  0
    1.5990  -13.6130  -13.5350 C   0  0  0  0  0  0  0  0  0  0  0  0
    5.7400  -15.0560  -10.0990 N   0  0  0  0  0  0  0  0  0  0  0  0
    6.9840  -14.7550   -9.3990 C   0  0  2  0  0  0  0  0  0  0  0  0
    7.9040  -15.9710   -9.3600 C   0  0  0  0  0  0  0  0  0  0  0  0
    9.1210  -15.8430   -9.5340 O   0  0  0  0  0  0  0  0  0  0  0  0
    6.6690  -14.2590   -7.9860 C   0  0  0  0  0  0  0  0  0  0  0  0
    7.7780  -13.7340   -7.0770 C   0  0  0  0  0  0  0  0  0  0  0  0
    8.5670  -12.6370   -7.7610 C   0  0  0  0  0  0  0  0  0  0  0  0
    7.1690  -13.2070   -5.7890 C   0  0  0  0  0  0  0  0  0  0  0  0
    7.3360  -17.1620   -9.1460 N   0  0  0  0  0  0  0  0  0  0  0  0
    8.1220  -18.3910   -9.2230 C   0  0  2  0  0  0  0  0  0  0  0  0
    8.8030  -18.5110  -10.5760 C   0  0  0  0  0  0  0  0  0  0  0  0
   10.0090  -18.7740  -10.6570 O   0  0  0  0  0  0  0  0  0  0  0  0
    7.2270  -19.6080   -8.9780 C   0  0  0  0  0  0  0  0  0  0  0  0
    6.8760  -19.8260   -7.5410 C   0  0  0  0  0  0  0  0  0  0  0  0
    5.7270  -19.3230   -6.9710 N   0  0  0  0  0  0  0  0  0  0  0  0
    7.5080  -20.5180   -6.5650 C   0  0  0  0  0  0  0  0  0  0  0  0
    5.6760  -19.6780   -5.7000 C   0  0  0  0  0  0  0  0  0  0  0  0
    6.7460  -20.4040   -5.4280 N   0  0  0  0  0  0  0  0  0  0  0  0
    8.0380  -18.3090  -11.6540 N   0  0  0  0  0  0  0  0  0  0  0  0
    8.6040  -18.3860  -12.9960 C   0  0  2  0  0  0  0  0  0  0  0  0
    9.6630  -17.3150  -13.2070 C   0  0  0  0  0  0  0  0  0  0  0  0
   10.6720  -17.5620  -13.8750 O   0  0  0  0  0  0  0  0  0  0  0  0
    7.4990  -18.2600  -14.0490 C   0  0  0  0  0  0  0  0  0  0  0  0
    9.4640  -16.1220  -12.6290 N   0  0  0  0  0  0  0  0  0  0  0  0
   10.4400  -15.0560  -12.8240 C   0  0  2  0  0  0  0  0  0  0  0  0
   11.7340  -15.3170  -12.0650 C   0  0  0  0  0  0  0  0  0  0  0  0
   12.8110  -14.9560  -12.5570 O   0  0  0  0  0  0  0  0  0  0  0  0
    9.8610  -13.6900  -12.4470 C   0  0  0  0  0  0  0  0  0  0  0  0
    8.6130  -13.2380  -13.2100 C   0  0  0  0  0  0  0  0  0  0  0  0
    8.0060  -11.9830  -12.6110 C   0  0  0  0  0  0  0  0  0  0  0  0
    8.9180  -13.0210  -14.6960 C   0  0  0  0  0  0  0  0  0  0  0  0
   11.6710  -15.8910  -10.8640 N   0  0  0  0  0  0  0  0  0  0  0  0
   12.9460  -16.2190  -10.1620 C   0  0  2  0  0  0  0  0  0  0  0  0
   13.6790  -17.3870  -10.8390 C   0  0  0  0  0  0  0  0  0  0  0  0
   14.9080  -17.2940  -10.9220 O   0  0  0  0  0  0  0  0  0  0  0  0
   12.7030  -16.4970   -8.6840 C   0  0  0  0  0  0  0  0  0  0  0  0
   12.3640  -15.2770   -7.8310 C   0  0  0  0  0  0  0  0  0  0  0  0
   11.4450  -15.6910   -6.6980 C   0  0  0  0  0  0  0  0  0  0  0  0
   13.6390  -14.7000   -7.2650 C   0  0  0  0  0  0  0  0  0  0  0  0
  2  1  1  0
  3  2  1  0
  4  3  2  0
  2  5  1  1
  6  3  1  0
  7  6  1  1
  8  7  1  0
  9  8  2  0
 10  7  1  0
 11 10  1  0
 10 12  1  6
 13 11  1  0
 14  8  1  0
 15 14  1  0
 16 15  1  0
 17 16  2  0
 15 18  1  1
 19 18  1  0
 20 19  1  0
 21 19  1  0
 22 16  1  0
 23 22  1  0
 24 23  1  0
 25 24  2  0
 23 26  1  6
 27 26  1  0
 28 27  1  0
 29 27  2  0
 30 28  2  0
 31 30  1  0
 31 29  1  0
 32 24  1  0
 33 32  1  0
 34 33  1  0
 35 34  2  0
 33 36  1  6
 37 34  1  0
 38 37  1  0
 39 38  1  0
 40 39  2  0
 38 41  1  1
 42 41  1  0
 43 42  1  0
 44 42  1  0
 45 39  1  0
 46 45  1  0
 47 46  1  0
 48 47  2  0
 46 49  1  1
 50 49  1  0
 51 50  1  0
 52 50  1  0
M  END
$$$$
3L03
     RDKit          3D

 79 79  0  0  0  0  0  0  0  0999 V2000
  -38.4230   17.9810   21.9670 N   0  0  0  0  0  0  0  0  0  0  0  0
  -37.8730   16.6370   21.7390 C   0  0  2  0  0  0  0  0  0  0  0  0
  -37.3830   16.0000   23.0410 C   0  0  0  0  0  0  0  0  0  0  0  0
  -36.6630   16.6240   23.8300 O   0  0  0  0  0  0  0  0  0  0  0  0
  -36.7510   16.6720   20.7060 C   0  0  0  0  0  0  0  0  0  0  0  0
  -35.8750   15.4420   20.7150 C   0  0  0  0  0  0  0  0  0  0  0  0
  -34.9430   15.4500   19.5170 C   0  0  0  0  0  0  0  0  0  0  0  0
  -35.7350   15.2700   18.2390 C   0  0  0  0  0  0  0  0  0  0  0  0
  -34.8230   15.2730   17.0730 N   0  0  0  0  0  0  0  0  0  0  0  0
  -37.7850   14.7570   23.2690 N   0  0  0  0  0  0  0  0  0  0  0  0
  -37.7010   14.1930   24.6160 C   0  0  2  0  0  0  0  0  0  0  0  0
  -36.2680   14.0490   25.0590 C   0  0  0  0  0  0  0  0  0  0  0  0
  -35.9020   14.3530   26.1880 O   0  0  0  0  0  0  0  0  0  0  0  0
  -38.3690   12.8180   24.7230 C   0  0  2  0  0  0  0  0  0  0  0  0
  -39.8840   12.9500   24.5830 C   0  0  0  0  0  0  0  0  0  0  0  0
  -38.0370   12.1860   26.0800 C   0  0  0  0  0  0  0  0  0  0  0  0
  -40.6070   11.6360   24.7930 C   0  0  0  0  0  0  0  0  0  0  0  0
  -35.4520   13.5630   24.1460 N   0  0  0  0  0  0  0  0  0  0  0  0
  -34.0310   13.3990   24.3890 C   0  0  2  0  0  0  0  0  0  0  0  0
  -33.3870   14.7140   24.8010 C   0  0  0  0  0  0  0  0  0  0  0  0
  -32.5520   14.7610   25.6990 O   0  0  0  0  0  0  0  0  0  0  0  0
  -33.3940   12.8940   23.1100 C   0  0  0  0  0  0  0  0  0  0  0  0
  -31.9190   12.6380   23.1710 C   0  0  0  0  0  0  0  0  0  0  0  0
  -31.6680   11.8130   24.4060 C   0  0  0  0  0  0  0  0  0  0  0  0
  -31.5120   11.8850   21.8720 C   0  0  0  0  0  0  0  0  0  0  0  0
  -33.7870   15.7800   24.1280 N   0  0  0  0  0  0  0  0  0  0  0  0
  -33.2370   17.0990   24.3820 C   0  0  2  0  0  0  0  0  0  0  0  0
  -33.5230   17.4630   25.8250 C   0  0  0  0  0  0  0  0  0  0  0  0
  -32.6450   17.9320   26.5400 O   0  0  0  0  0  0  0  0  0  0  0  0
  -33.8700   18.0920   23.4110 C   0  0  0  0  0  0  0  0  0  0  0  0
  -33.3560   19.4840   23.5460 C   0  0  0  0  0  0  0  0  0  0  0  0
  -33.9330   20.4130   24.3870 N   0  0  0  0  0  0  0  0  0  0  0  0
  -32.3290   20.1150   22.9350 C   0  0  0  0  0  0  0  0  0  0  0  0
  -33.2710   21.5550   24.2950 C   0  0  0  0  0  0  0  0  0  0  0  0
  -32.2900   21.3990   23.4220 N   0  0  0  0  0  0  0  0  0  0  0  0
  -34.7600   17.2120   26.2640 N   0  0  0  0  0  0  0  0  0  0  0  0
  -35.1510   17.4760   27.6500 C   0  0  2  0  0  0  0  0  0  0  0  0
  -34.3430   16.6190   28.6400 C   0  0  0  0  0  0  0  0  0  0  0  0
  -33.8000   17.1280   29.6190 O   0  0  0  0  0  0  0  0  0  0  0  0
  -36.6640   17.2190   27.8490 C   0  0  0  0  0  0  0  0  0  0  0  0
  -37.2000   17.5850   29.2360 C   0  0  0  0  0  0  0  0  0  0  0  0
  -37.3020   19.1030   29.4380 C   0  0  0  0  0  0  0  0  0  0  0  0
  -37.6650   19.4550   30.8120 N   0  0  0  0  0  0  0  0  0  0  0  0
  -38.9140   19.6520   31.2450 C   0  0  0  0  0  0  0  0  0  0  0  0
  -39.9450   19.5380   30.4110 N   0  0  0  0  0  0  0  0  0  0  0  0
  -39.1310   19.9610   32.5220 N   0  0  0  0  0  0  0  0  0  0  0  0
  -34.2890   15.3120   28.3930 N   0  0  0  0  0  0  0  0  0  0  0  0
  -33.5810   14.4010   29.2860 C   0  0  2  0  0  0  0  0  0  0  0  0
  -32.1040   14.7480   29.4020 C   0  0  0  0  0  0  0  0  0  0  0  0
  -31.4950   14.5070   30.4470 O   0  0  0  0  0  0  0  0  0  0  0  0
  -33.7340   12.9460   28.8250 C   0  0  0  0  0  0  0  0  0  0  0  0
  -35.0790   12.2350   29.0390 C   0  0  0  0  0  0  0  0  0  0  0  0
  -35.0650   10.8570   28.3670 C   0  0  0  0  0  0  0  0  0  0  0  0
  -35.3690   12.1080   30.5270 C   0  0  0  0  0  0  0  0  0  0  0  0
  -31.5040   15.2780   28.3290 N   0  0  0  0  0  0  0  0  0  0  0  0
  -30.0960   15.6730   28.4120 C   0  0  2  0  0  0  0  0  0  0  0  0
  -29.8720   16.8670   29.3520 C   0  0  0  0  0  0  0  0  0  0  0  0
  -28.7880   17.0490   29.8950 O   0  0  0  0  0  0  0  0  0  0  0  0
  -29.4950   15.9080   27.0270 C   0  0  0  0  0  0  0  0  0  0  0  0
  -29.1420   14.5880   26.3140 C   0  0  0  0  0  0  0  0  0  0  0  0
  -29.1690   14.7210   24.7700 C   0  0  0  0  0  0  0  0  0  0  0  0
  -27.7750   14.0780   26.7720 C   0  0  0  0  0  0  0  0  0  0  0  0
  -30.9060   17.6570   29.5970 N   0  0  0  0  0  0  0  0  0  0  0  0
  -30.7290   18.7580   30.5480 C   0  0  2  0  0  0  0  0  0  0  0  0
  -30.9450   18.3550   32.0130 C   0  0  0  0  0  0  0  0  0  0  0  0
  -30.4000   18.9770   32.9150 O   0  0  0  0  0  0  0  0  0  0  0  0
  -31.5910   19.9440   30.1510 C   0  0  0  0  0  0  0  0  0  0  0  0
  -31.1700   20.5290   28.8130 C   0  0  0  0  0  0  0  0  0  0  0  0
  -32.2430   21.4000   28.2210 C   0  0  0  0  0  0  0  0  0  0  0  0
  -33.0140   20.9570   27.3730 O   0  0  0  0  0  0  0  0  0  0  0  0
  -32.3170   22.6400   28.6780 N   0  0  0  0  0  0  0  0  0  0  0  0
  -31.7060   17.2900   32.2310 N   0  0  0  0  0  0  0  0  0  0  0  0
  -32.0180   16.8130   33.5810 C   0  0  2  0  0  0  0  0  0  0  0  0
  -31.0490   15.7250   34.0430 C   0  0  0  0  0  0  0  0  0  0  0  0
  -29.9510   16.0120   34.5220 O   0  0  0  0  0  0  0  0  0  0  0  0
  -33.4490   16.2680   33.6250 C   0  0  0  0  0  0  0  0  0  0  0  0
  -34.4760   17.2840   33.1520 C   0  0  0  0  0  0  0  0  0  0  0  0
  -35.5610   16.8660   32.6850 O   0  0  0  0  0  0  0  0  0  0  0  0
  -34.1950   18.5010   33.2400 O   0  0  0  0  0  0  0  0  0  0  0  0
  2  1  1  1
  3  2  1  0
  4  3  2  0
  5  2  1  0
  6  5  1  0
  7  6  1  0
  8  7  1  0
  9  8  1  0
 10  3  1  0
 11 10  1  6
 12 11  1  0
 13 12  2  0
 14 11  1  0
 15 14  1  0
 14 16  1  1
 17 15  1  0
 18 12  1  0
 19 18  1  0
 20 19  1  0
 21 20  2  0
 19 22  1  6
 23 22  1  0
 24 23  1  0
 25 23  1  0
 26 20  1  0
 27 26  1  0
 28 27  1  0
 29 28  2  0
 27 30  1  6
 31 30  1  0
 32 31  1  0
 33 31  2  0
 34 32  2  0
 35 34  1  0
 35 33  1  0
 36 28  1  0
 37 36  1  0
 38 37  1  0
 39 38  2  0
 37 40  1  6
 41 40  1  0
 42 41  1  0
 43 42  1  0
 44 43  1  0
 45 44  1  0
 46 44  2  0
 47 38  1  0
 48 47  1  0
 49 48  1  0
 50 49  2  0
 48 51  1  6
 52 51  1  0
 53 52  1  0
 54 52  1  0
 55 49  1  0
 56 55  1  0
 57 56  1  0
 58 57  2  0
 56 59  1  6
 60 59  1  0
 61 60  1  0
 62 60  1  0
 63 57  1  0
 64 63  1  0
 65 64  1  0
 66 65  2  0
 64 67  1  6
 68 67  1  0
 69 68  1  0
 70 69  2  0
 71 69  1  0
 72 65  1  0
 73 72  1  0
 74 73  1  0
 75 74  2  0
 73 76  1  6
 77 76  1  0
 78 77  2  0
 79 77  1  0
M  END
$$$$
4IV4
     RDKit          3D

 79 79  0  0  0  0  0  0  0  0999 V2000
    7.8660   -1.8350   33.8830 N   0  0  0  0  0  0  0  0  0  0  0  0
    8.0000   -0.3850   33.7980 C   0  0  2  0  0  0  0  0  0  0  0  0
    7.1980    0.3290   34.8790 C   0  0  0  0  0  0  0  0  0  0  0  0
    6.1060   -0.1050   35.2480 O   0  0  0  0  0  0  0  0  0  0  0  0
    7.5660    0.1190   32.4210 C   0  0  0  0  0  0  0  0  0  0  0  0
    8.6670    0.1160   31.3760 C   0  0  0  0  0  0  0  0  0  0  0  0
    8.1600    0.6680   30.0550 C   0  0  0  0  0  0  0  0  0  0  0  0
    9.2500    0.6670   28.9970 C   0  0  0  0  0  0  0  0  0  0  0  0
    8.7220    1.0600   27.6610 N   0  0  0  0  0  0  0  0  0  0  0  0
    7.7480    1.4310   35.3790 N   0  0  0  0  0  0  0  0  0  0  0  0
    7.0680    2.2410   36.3800 C   0  0  2  0  0  0  0  0  0  0  0  0
    5.8370    2.9080   35.7780 C   0  0  0  0  0  0  0  0  0  0  0  0
    4.7900    2.9960   36.4180 O   0  0  0  0  0  0  0  0  0  0  0  0
    7.9960    3.3270   36.9520 C   0  0  2  0  0  0  0  0  0  0  0  0
    9.2110    2.6880   37.6270 C   0  0  0  0  0  0  0  0  0  0  0  0
    7.2410    4.2090   37.9340 C   0  0  0  0  0  0  0  0  0  0  0  0
   10.1680    3.6910   38.2350 C   0  0  0  0  0  0  0  0  0  0  0  0
    5.9720    3.3740   34.5410 N   0  0  0  0  0  0  0  0  0  0  0  0
    4.8730    4.0360   33.8500 C   0  0  2  0  0  0  0  0  0  0  0  0
    3.7390    3.0640   33.5450 C   0  0  0  0  0  0  0  0  0  0  0  0
    2.5660    3.4290   33.6050 O   0  0  0  0  0  0  0  0  0  0  0  0
    5.3690    4.6890   32.5580 C   0  0  0  0  0  0  0  0  0  0  0  0
    4.2890    5.2760   31.6470 C   0  0  0  0  0  0  0  0  0  0  0  0
    3.3230    6.1400   32.4440 C   0  0  0  0  0  0  0  0  0  0  0  0
    4.9150    6.0660   30.5070 C   0  0  0  0  0  0  0  0  0  0  0  0
    4.0950    1.8260   33.2200 N   0  0  0  0  0  0  0  0  0  0  0  0
    3.1000    0.8130   32.8900 C   0  0  2  0  0  0  0  0  0  0  0  0
    2.1820    0.5260   34.0750 C   0  0  0  0  0  0  0  0  0  0  0  0
    0.9590    0.5280   33.9370 O   0  0  0  0  0  0  0  0  0  0  0  0
    3.7740   -0.4760   32.4150 C   0  0  0  0  0  0  0  0  0  0  0  0
    2.8120   -1.5230   31.9460 C   0  0  0  0  0  0  0  0  0  0  0  0
    2.6940   -2.7530   32.5540 N   0  0  0  0  0  0  0  0  0  0  0  0
    1.9170   -1.5180   30.9290 C   0  0  0  0  0  0  0  0  0  0  0  0
    1.7710   -3.4640   31.9310 C   0  0  0  0  0  0  0  0  0  0  0  0
    1.2840   -2.7370   30.9410 N   0  0  0  0  0  0  0  0  0  0  0  0
    2.7760    0.2810   35.2400 N   0  0  0  0  0  0  0  0  0  0  0  0
    1.9990    0.0020   36.4430 C   0  0  2  0  0  0  0  0  0  0  0  0
    1.1970    1.2240   36.8830 C   0  0  0  0  0  0  0  0  0  0  0  0
    0.0280    1.1070   37.2500 O   0  0  0  0  0  0  0  0  0  0  0  0
    2.9030   -0.4920   37.5780 C   0  0  0  0  0  0  0  0  0  0  0  0
    4.0370    0.4550   37.9360 C   0  0  0  0  0  0  0  0  0  0  0  0
    4.9870   -0.1670   38.9540 C   0  0  0  0  0  0  0  0  0  0  0  0
    4.6080    0.0500   40.3530 N   0  0  0  0  0  0  0  0  0  0  0  0
    3.5130    0.6840   40.7690 C   0  0  0  0  0  0  0  0  0  0  0  0
    2.6420    1.1790   39.9020 N   0  0  0  0  0  0  0  0  0  0  0  0
    3.2870    0.8180   42.0690 N   0  0  0  0  0  0  0  0  0  0  0  0
    1.8270    2.3940   36.8430 N   0  0  0  0  0  0  0  0  0  0  0  0
    1.1430    3.6350   37.1900 C   0  0  2  0  0  0  0  0  0  0  0  0
   -0.1210    3.8010   36.3560 C   0  0  0  0  0  0  0  0  0  0  0  0
   -1.1610    4.2190   36.8630 O   0  0  0  0  0  0  0  0  0  0  0  0
    2.0640    4.8410   36.9980 C   0  0  0  0  0  0  0  0  0  0  0  0
    3.2480    4.9620   37.9590 C   0  0  0  0  0  0  0  0  0  0  0  0
    3.9940    6.2650   37.7200 C   0  0  0  0  0  0  0  0  0  0  0  0
    2.7770    4.8710   39.4010 C   0  0  0  0  0  0  0  0  0  0  0  0
   -0.0230    3.4690   35.0720 N   0  0  0  0  0  0  0  0  0  0  0  0
   -1.1750    3.5190   34.1800 C   0  0  2  0  0  0  0  0  0  0  0  0
   -2.2380    2.5090   34.6000 C   0  0  0  0  0  0  0  0  0  0  0  0
   -3.4340    2.7900   34.5260 O   0  0  0  0  0  0  0  0  0  0  0  0
   -0.7490    3.2740   32.7310 C   0  0  0  0  0  0  0  0  0  0  0  0
   -0.2410    4.4940   31.9610 C   0  0  0  0  0  0  0  0  0  0  0  0
    0.3960    4.0780   30.6450 C   0  0  0  0  0  0  0  0  0  0  0  0
   -1.3740    5.4820   31.7260 C   0  0  0  0  0  0  0  0  0  0  0  0
   -1.7980    1.3340   35.0380 N   0  0  0  0  0  0  0  0  0  0  0  0
   -2.7180    0.3110   35.5230 C   0  0  2  0  0  0  0  0  0  0  0  0
   -3.4560    0.7870   36.7680 C   0  0  0  0  0  0  0  0  0  0  0  0
   -4.6500    0.5340   36.9290 O   0  0  0  0  0  0  0  0  0  0  0  0
   -1.9760   -0.9930   35.8230 C   0  0  0  0  0  0  0  0  0  0  0  0
   -1.6790   -1.8450   34.6010 C   0  0  0  0  0  0  0  0  0  0  0  0
   -1.0610   -3.1810   34.9630 C   0  0  0  0  0  0  0  0  0  0  0  0
   -0.4820   -3.3380   36.0380 O   0  0  0  0  0  0  0  0  0  0  0  0
   -1.1860   -4.1540   34.0670 N   0  0  0  0  0  0  0  0  0  0  0  0
   -2.7370    1.4760   37.6470 N   0  0  0  0  0  0  0  0  0  0  0  0
   -3.3170    1.9900   38.8830 C   0  0  2  0  0  0  0  0  0  0  0  0
   -3.9520    3.3600   38.6740 C   0  0  0  0  0  0  0  0  0  0  0  0
   -4.6160    3.8890   39.5650 O   0  0  0  0  0  0  0  0  0  0  0  0
   -2.2540    2.0650   39.9810 C   0  0  0  0  0  0  0  0  0  0  0  0
   -1.8350    0.6960   40.4810 C   0  0  0  0  0  0  0  0  0  0  0  0
   -2.7260   -0.1260   40.7790 O   0  0  0  0  0  0  0  0  0  0  0  0
   -0.6160    0.4410   40.5700 O   0  0  0  0  0  0  0  0  0  0  0  0
  2  1  1  6
  3  2  1  0
  4  3  2  0
  5  2  1  0
  6  5  1  0
  7  6  1  0
  8  7  1  0
  9  8  1  0
 10  3  1  0
 11 10  1  6
 12 11  1  0
 13 12  2  0
 14 11  1  0
 15 14  1  0
 14 16  1  1
 17 15  1  0
 18 12  1  0
 19 18  1  0
 20 19  1  0
 21 20  2  0
 19 22  1  6
 23 22  1  0
 24 23  1  0
 25 23  1  0
 26 20  1  0
 27 26  1  0
 28 27  1  0
 29 28  2  0
 27 30  1  1
 31 30  1  0
 32 31  1  0
 33 31  2  0
 34 32  2  0
 35 34  1  0
 35 33  1  0
 36 28  1  0
 37 36  1  0
 38 37  1  0
 39 38  2  0
 37 40  1  1
 41 40  1  0
 42 41  1  0
 43 42  1  0
 44 43  1  0
 45 44  1  0
 46 44  2  0
 47 38  1  0
 48 47  1  0
 49 48  1  0
 50 49  2  0
 48 51  1  6
 52 51  1  0
 53 52  1  0
 54 52  1  0
 55 49  1  0
 56 55  1  0
 57 56  1  0
 58 57  2  0
 56 59  1  6
 60 59  1  0
 61 60  1  0
 62 60  1  0
 63 57  1  0
 64 63  1  0
 65 64  1  0
 66 65  2  0
 64 67  1  1
 68 67  1  0
 69 68  1  0
 70 69  2  0
 71 69  1  0
 72 65  1  0
 73 72  1  0
 74 73  1  0
 75 74  2  0
 73 76  1  1
 77 76  1  0
 78 77  2  0
 79 77  1  0
M  END
$$$$
4IWF
     RDKit          3D

 79 79  0  0  0  0  0  0  0  0999 V2000
    2.3730  -18.6660   -9.4600 N   0  0  0  0  0  0  0  0  0  0  0  0
    2.4220  -17.2050   -9.4530 C   0  0  2  0  0  0  0  0  0  0  0  0
    3.4940  -16.6500  -10.3920 C   0  0  0  0  0  0  0  0  0  0  0  0
    4.5610  -17.2580  -10.5710 O   0  0  0  0  0  0  0  0  0  0  0  0
    2.6430  -16.6740   -8.0320 C   0  0  0  0  0  0  0  0  0  0  0  0
    1.3740  -16.6000   -7.1840 C   0  0  0  0  0  0  0  0  0  0  0  0
    1.3950  -17.6030   -6.0420 C   0  0  0  0  0  0  0  0  0  0  0  0
    2.4490  -17.2490   -4.9960 C   0  0  0  0  0  0  0  0  0  0  0  0
    2.0900  -16.0420   -4.1950 N   0  0  0  0  0  0  0  0  0  0  0  0
    3.2030  -15.4880  -10.9800 N   0  0  0  0  0  0  0  0  0  0  0  0
    4.1420  -14.7970  -11.8680 C   0  0  2  0  0  0  0  0  0  0  0  0
    5.4930  -14.5150  -11.1990 C   0  0  0  0  0  0  0  0  0  0  0  0
    6.5280  -14.5900  -11.8490 O   0  0  0  0  0  0  0  0  0  0  0  0
    3.5410  -13.4760  -12.4040 C   0  0  2  0  0  0  0  0  0  0  0  0
    2.3660  -13.7630  -13.3460 C   0  0  0  0  0  0  0  0  0  0  0  0
    4.5980  -12.6590  -13.1260 C   0  0  0  0  0  0  0  0  0  0  0  0
    1.3110  -12.6760  -13.3620 C   0  0  0  0  0  0  0  0  0  0  0  0
    5.4870  -14.1930   -9.9050 N   0  0  0  0  0  0  0  0  0  0  0  0
    6.7390  -13.9140   -9.1940 C   0  0  2  0  0  0  0  0  0  0  0  0
    7.6280  -15.1490   -9.1870 C   0  0  0  0  0  0  0  0  0  0  0  0
    8.8460  -15.0530   -9.3760 O   0  0  0  0  0  0  0  0  0  0  0  0
    6.4720  -13.4240   -7.7590 C   0  0  0  0  0  0  0  0  0  0  0  0
    7.7060  -12.9690   -6.9670 C   0  0  0  0  0  0  0  0  0  0  0  0
    8.4550  -11.8500   -7.7100 C   0  0  0  0  0  0  0  0  0  0  0  0
    7.3410  -12.5280   -5.5390 C   0  0  0  0  0  0  0  0  0  0  0  0
    7.0160  -16.3150   -8.9790 N   0  0  0  0  0  0  0  0  0  0  0  0
    7.7400  -17.5840   -9.0850 C   0  0  2  0  0  0  0  0  0  0  0  0
    8.5300  -17.6590  -10.3900 C   0  0  0  0  0  0  0  0  0  0  0  0
    9.7470  -17.8700  -10.3830 O   0  0  0  0  0  0  0  0  0  0  0  0
    6.7720  -18.7710   -9.0230 C   0  0  0  0  0  0  0  0  0  0  0  0
    6.2400  -19.0510   -7.6550 C   0  0  0  0  0  0  0  0  0  0  0  0
    6.9290  -19.8070   -6.7320 N   0  0  0  0  0  0  0  0  0  0  0  0
    5.0770  -18.6940   -7.0600 C   0  0  0  0  0  0  0  0  0  0  0  0
    6.2190  -19.8900   -5.6190 C   0  0  0  0  0  0  0  0  0  0  0  0
    5.0920  -19.2230   -5.7920 N   0  0  0  0  0  0  0  0  0  0  0  0
    7.8320  -17.5040  -11.5120 N   0  0  0  0  0  0  0  0  0  0  0  0
    8.4690  -17.6530  -12.8180 C   0  0  2  0  0  0  0  0  0  0  0  0
    9.6110  -16.6560  -13.0150 C   0  0  0  0  0  0  0  0  0  0  0  0
   10.6690  -17.0190  -13.5250 O   0  0  0  0  0  0  0  0  0  0  0  0
    7.4400  -17.5220  -13.9480 C   0  0  0  0  0  0  0  0  0  0  0  0
    8.0130  -17.8150  -15.3330 C   0  0  0  0  0  0  0  0  0  0  0  0
    6.9440  -17.7540  -16.4180 C   0  0  0  0  0  0  0  0  0  0  0  0
    6.4150  -16.4020  -16.6010 N   0  0  0  0  0  0  0  0  0  0  0  0
    5.2140  -16.0010  -16.1920 C   0  0  0  0  0  0  0  0  0  0  0  0
    4.4000  -16.8520  -15.5720 N   0  0  0  0  0  0  0  0  0  0  0  0
    4.8250  -14.7490  -16.4070 N   0  0  0  0  0  0  0  0  0  0  0  0
    9.3980  -15.4050  -12.6070 N   0  0  0  0  0  0  0  0  0  0  0  0
   10.4140  -14.3630  -12.7690 C   0  0  2  0  0  0  0  0  0  0  0  0
   11.6830  -14.6780  -11.9780 C   0  0  0  0  0  0  0  0  0  0  0  0
   12.8000  -14.4250  -12.4460 O   0  0  0  0  0  0  0  0  0  0  0  0
    9.8560  -12.9850  -12.3850 C   0  0  0  0  0  0  0  0  0  0  0  0
    8.7410  -12.4040  -13.2540 C   0  0  0  0  0  0  0  0  0  0  0  0
    8.3230  -11.0250  -12.7690 C   0  0  0  0  0  0  0  0  0  0  0  0
    9.1860  -12.3400  -14.7030 C   0  0  0  0  0  0  0  0  0  0  0  0
   11.5170  -15.2430  -10.7840 N   0  0  0  0  0  0  0  0  0  0  0  0
   12.6650  -15.6040   -9.9580 C   0  0  2  0  0  0  0  0  0  0  0  0
   13.5150  -16.7030  -10.6080 C   0  0  0  0  0  0  0  0  0  0  0  0
   14.7480  -16.6260  -10.6100 O   0  0  0  0  0  0  0  0  0  0  0  0
   12.2070  -16.0050   -8.5530 C   0  0  0  0  0  0  0  0  0  0  0  0
   11.8770  -14.8250   -7.6310 C   0  0  0  0  0  0  0  0  0  0  0  0
   11.0090  -15.2630   -6.4470 C   0  0  0  0  0  0  0  0  0  0  0  0
   13.1500  -14.1510   -7.1250 C   0  0  0  0  0  0  0  0  0  0  0  0
   12.8560  -17.7090  -11.1770 N   0  0  0  0  0  0  0  0  0  0  0  0
   13.5640  -18.7920  -11.8630 C   0  0  2  0  0  0  0  0  0  0  0  0
   14.2120  -18.3330  -13.1700 C   0  0  0  0  0  0  0  0  0  0  0  0
   15.3150  -18.7650  -13.5000 O   0  0  0  0  0  0  0  0  0  0  0  0
   12.6210  -19.9730  -12.1120 C   0  0  0  0  0  0  0  0  0  0  0  0
   12.1980  -20.6840  -10.8310 C   0  0  0  0  0  0  0  0  0  0  0  0
   11.0880  -21.6840  -11.0580 C   0  0  0  0  0  0  0  0  0  0  0  0
   10.2330  -21.4920  -11.9230 O   0  0  0  0  0  0  0  0  0  0  0  0
   11.0920  -22.7590  -10.2800 N   0  0  0  0  0  0  0  0  0  0  0  0
   13.5330  -17.4450  -13.8970 N   0  0  0  0  0  0  0  0  0  0  0  0
   14.0410  -16.9390  -15.1770 C   0  0  2  0  0  0  0  0  0  0  0  0
   14.8550  -15.6480  -15.0310 C   0  0  0  0  0  0  0  0  0  0  0  0
   15.1510  -15.1970  -13.9220 O   0  0  0  0  0  0  0  0  0  0  0  0
   12.8890  -16.7270  -16.1700 C   0  0  0  0  0  0  0  0  0  0  0  0
   12.0200  -17.9650  -16.3310 C   0  0  0  0  0  0  0  0  0  0  0  0
   12.4890  -19.0740  -15.9910 O   0  0  0  0  0  0  0  0  0  0  0  0
   10.8670  -17.8320  -16.7970 O   0  0  0  0  0  0  0  0  0  0  0  0
  2  1  1  1
  3  2  1  0
  4  3  2  0
  5  2  1  0
  6  5  1  0
  7  6  1  0
  8  7  1  0
  9  8  1  0
 10  3  1  0
 11 10  1  1
 12 11  1  0
 13 12  2  0
 14 11  1  0
 15 14  1  0
 14 16  1  6
 17 15  1  0
 18 12  1  0
 19 18  1  0
 20 19  1  0
 21 20  2  0
 19 22  1  1
 23 22  1  0
 24 23  1  0
 25 23  1  0
 26 20  1  0
 27 26  1  0
 28 27  1  0
 29 28  2  0
 27 30  1  6
 31 30  1  0
 32 31  1  0
 33 31  2  0
 34 32  2  0
 35 33  1  0
 35 34  1  0
 36 28  1  0
 37 36  1  0
 38 37  1  0
 39 38  2  0
 37 40  1  6
 41 40  1  0
 42 41  1  0
 43 42  1  0
 44 43  1  0
 45 44  1  0
 46 44  2  0
 47 38  1  0
 48 47  1  0
 49 48  1  0
 50 49  2  0
 48 51  1  1
 52 51  1  0
 53 52  1  0
 54 52  1  0
 55 49  1  0
 56 55  1  0
 57 56  1  0
 58 57  2  0
 56 59  1  1
 60 59  1  0
 61 60  1  0
 62 60  1  0
 63 57  1  0
 64 63  1  0
 65 64  1  0
 66 65  2  0
 64 67  1  6
 68 67  1  0
 69 68  1  0
 70 69  2  0
 71 69  1  0
 72 65  1  0
 73 72  1  0
 74 73  1  0
 75 74  2  0
 73 76  1  6
 77 76  1  0
 78 77  2  0
 79 77  1  0
M  END
$$$$
1GWR
     RDKit          3D

 70 70  0  0  0  0  0  0  0  0999 V2000
  -14.1310   17.5110   16.5890 N   0  0  0  0  0  0  0  0  0  0  0  0
  -12.7440   17.1500   16.1630 C   0  0  2  0  0  0  0  0  0  0  0  0
  -12.0460   16.2990   17.2280 C   0  0  0  0  0  0  0  0  0  0  0  0
  -11.3760   16.8690   18.0990 O   0  0  0  0  0  0  0  0  0  0  0  0
  -11.8740   18.3690   15.9080 C   0  0  0  0  0  0  0  0  0  0  0  0
  -12.2390   19.1990   14.7020 C   0  0  0  0  0  0  0  0  0  0  0  0
  -12.8190   20.2770   14.8450 O   0  0  0  0  0  0  0  0  0  0  0  0
  -11.8740   18.7040   13.5230 N   0  0  0  0  0  0  0  0  0  0  0  0
  -12.2060   14.9820   17.1530 N   0  0  0  0  0  0  0  0  0  0  0  0
  -11.6110   14.0830   18.1380 C   0  0  2  0  0  0  0  0  0  0  0  0
  -10.1000   14.2430   18.2370 C   0  0  0  0  0  0  0  0  0  0  0  0
   -9.5610   14.8050   19.1910 O   0  0  0  0  0  0  0  0  0  0  0  0
  -11.9380   12.6170   17.8600 C   0  0  0  0  0  0  0  0  0  0  0  0
   -9.3760   13.7480   17.2610 N   0  0  0  0  0  0  0  0  0  0  0  0
   -7.9310   13.7910   17.2020 C   0  0  2  0  0  0  0  0  0  0  0  0
   -7.3100   15.0750   17.7200 C   0  0  0  0  0  0  0  0  0  0  0  0
   -6.3730   15.0540   18.5210 O   0  0  0  0  0  0  0  0  0  0  0  0
   -7.5520   13.5370   15.7330 C   0  0  0  0  0  0  0  0  0  0  0  0
   -6.0720   13.1970   15.5330 C   0  0  0  0  0  0  0  0  0  0  0  0
   -5.6830   11.9720   16.3520 C   0  0  0  0  0  0  0  0  0  0  0  0
   -5.7700   13.0130   14.0530 C   0  0  0  0  0  0  0  0  0  0  0  0
   -7.7940   16.2330   17.2610 N   0  0  0  0  0  0  0  0  0  0  0  0
   -7.2930   17.5100   17.6980 C   0  0  2  0  0  0  0  0  0  0  0  0
   -7.4830   17.7380   19.1880 C   0  0  0  0  0  0  0  0  0  0  0  0
   -6.5210   18.1510   19.8350 O   0  0  0  0  0  0  0  0  0  0  0  0
   -7.9370   18.6940   16.9750 C   0  0  0  0  0  0  0  0  0  0  0  0
   -7.1400   19.3000   15.8160 C   0  0  0  0  0  0  0  0  0  0  0  0
   -8.0960   20.0590   14.9010 C   0  0  0  0  0  0  0  0  0  0  0  0
   -6.0120   20.1930   16.2980 C   0  0  0  0  0  0  0  0  0  0  0  0
   -8.6620   17.5020   19.7080 N   0  0  0  0  0  0  0  0  0  0  0  0
   -8.9230   17.7240   21.1330 C   0  0  2  0  0  0  0  0  0  0  0  0
   -7.9550   16.9700   22.0330 C   0  0  0  0  0  0  0  0  0  0  0  0
   -7.4770   17.5010   23.0370 O   0  0  0  0  0  0  0  0  0  0  0  0
  -10.3640   17.3750   21.4730 C   0  0  0  0  0  0  0  0  0  0  0  0
   -7.6050   15.7410   21.6560 N   0  0  0  0  0  0  0  0  0  0  0  0
   -6.6190   14.9210   22.3080 C   0  0  2  0  0  0  0  0  0  0  0  0
   -5.1950   15.3710   22.0310 C   0  0  0  0  0  0  0  0  0  0  0  0
   -4.3520   14.9950   22.8650 O   0  0  0  0  0  0  0  0  0  0  0  0
   -6.7560   13.4470   21.9190 C   0  0  0  0  0  0  0  0  0  0  0  0
   -7.9780   12.8260   22.5620 C   0  0  0  0  0  0  0  0  0  0  0  0
   -9.2240   12.9880   21.9660 C   0  0  0  0  0  0  0  0  0  0  0  0
   -7.9070   12.1080   23.7490 C   0  0  0  0  0  0  0  0  0  0  0  0
  -10.3620   12.4420   22.5130 C   0  0  0  0  0  0  0  0  0  0  0  0
   -9.0350   11.5620   24.3010 C   0  0  0  0  0  0  0  0  0  0  0  0
  -10.2480   11.7250   23.6910 C   0  0  0  0  0  0  0  0  0  0  0  0
  -11.3970   11.1780   24.2290 O   0  0  0  0  0  0  0  0  0  0  0  0
   -4.8540   16.1380   21.0010 N   0  0  0  0  0  0  0  0  0  0  0  0
   -3.4530   16.5520   20.8910 C   0  0  2  0  0  0  0  0  0  0  0  0
   -3.2470   17.7460   21.8300 C   0  0  0  0  0  0  0  0  0  0  0  0
   -2.1540   17.8360   22.4050 O   0  0  0  0  0  0  0  0  0  0  0  0
   -2.9840   16.8550   19.4950 C   0  0  0  0  0  0  0  0  0  0  0  0
   -3.1000   15.6620   18.5450 C   0  0  0  0  0  0  0  0  0  0  0  0
   -3.0890   16.1520   17.1010 C   0  0  0  0  0  0  0  0  0  0  0  0
   -1.9790   14.6740   18.8250 C   0  0  0  0  0  0  0  0  0  0  0  0
   -4.2660   18.5840   21.9890 N   0  0  0  0  0  0  0  0  0  0  0  0
   -4.1610   19.7200   22.8910 C   0  0  2  0  0  0  0  0  0  0  0  0
   -4.2570   19.4050   24.3840 C   0  0  0  0  0  0  0  0  0  0  0  0
   -3.7590   20.1870   25.1870 O   0  0  0  0  0  0  0  0  0  0  0  0
   -5.3310   20.7000   22.6670 C   0  0  0  0  0  0  0  0  0  0  0  0
   -5.2740   21.4500   21.3380 C   0  0  0  0  0  0  0  0  0  0  0  0
   -6.5760   22.1870   21.1100 C   0  0  0  0  0  0  0  0  0  0  0  0
   -4.0700   22.3740   21.3310 C   0  0  0  0  0  0  0  0  0  0  0  0
   -4.9320   18.3400   24.7800 N   0  0  0  0  0  0  0  0  0  0  0  0
   -5.0620   18.0320   26.1970 C   0  0  2  0  0  0  0  0  0  0  0  0
   -3.7240   17.5750   26.7660 C   0  0  0  0  0  0  0  0  0  0  0  0
   -3.7930   16.5200   27.4500 O   0  0  0  0  0  0  0  0  0  0  0  0
   -6.1500   16.9790   26.4240 C   0  0  0  0  0  0  0  0  0  0  0  0
   -7.5440   17.5530   26.2620 C   0  0  0  0  0  0  0  0  0  0  0  0
   -7.7100   18.7860   26.1580 O   0  0  0  0  0  0  0  0  0  0  0  0
   -8.4900   16.7360   26.2270 O   0  0  0  0  0  0  0  0  0  0  0  0
  2  1  1  1
  3  2  1  0
  4  3  2  0
  5  2  1  0
  6  5  1  0
  7  6  2  0
  8  6  1  0
  9  3  1  0
 10  9  1  0
 11 10  1  0
 12 11  2  0
 10 13  1  6
 14 11  1  0
 15 14  1  0
 16 15  1  0
 17 16  2  0
 15 18  1  6
 19 18  1  0
 20 19  1  0
 21 19  1  0
 22 16  1  0
 23 22  1  0
 24 23  1  0
 25 24  2  0
 23 26  1  6
 27 26  1  0
 28 27  1  0
 29 27  1  0
 30 24  1  0
 31 30  1  0
 32 31  1  0
 33 32  2  0
 31 34  1  1
 35 32  1  0
 36 35  1  0
 37 36  1  0
 38 37  2  0
 36 39  1  6
 40 39  1  0
 41 40  2  0
 42 40  1  0
 43 41  1  0
 44 42  2  0
 45 44  1  0
 45 43  2  0
 46 45  1  0
 47 37  1  0
 48 47  1  0
 49 48  1  0
 50 49  2  0
 48 51  1  6
 52 51  1  0
 53 52  1  0
 54 52  1  0
 55 49  1  0
 56 55  1  0
 57 56  1  0
 58 57  2  0
 56 59  1  6
 60 59  1  0
 61 60  1  0
 62 60  1  0
 63 57  1  0
 64 63  1  0
 65 64  1  0
 66 65  2  0
 64 67  1  6
 68 67  1  0
 69 68  2  0
 70 68  1  0
M  END
$$$$
8B39
     RDKit          3D

 42 43  0  0  0  0  0  0  0  0999 V2000
  -12.9180   -8.1460   14.4710 N   0  0  0  0  0  0  0  0  0  0  0  0
  -13.8650   -9.2880   14.4510 C   0  0  2  0  0  0  0  0  0  0  0  0
  -13.1780  -10.5030   13.8480 C   0  0  0  0  0  0  0  0  0  0  0  0
  -12.3210  -10.3900   12.9700 O   0  0  0  0  0  0  0  0  0  0  0  0
  -15.1930   -8.9570   13.7000 C   0  0  0  0  0  0  0  0  0  0  0  0
  -15.0140   -8.3370   12.3380 C   0  0  0  0  0  0  0  0  0  0  0  0
  -14.9750   -6.9600   12.1920 C   0  0  0  0  0  0  0  0  0  0  0  0
  -14.9590   -9.1260   11.1900 C   0  0  0  0  0  0  0  0  0  0  0  0
  -14.8170   -6.3690   10.9320 C   0  0  0  0  0  0  0  0  0  0  0  0
  -14.7810   -8.5530    9.9350 C   0  0  0  0  0  0  0  0  0  0  0  0
  -14.7240   -7.1740    9.8030 C   0  0  0  0  0  0  0  0  0  0  0  0
  -13.5490  -11.7170   14.2890 N   0  0  0  0  0  0  0  0  0  0  0  0
  -12.9820  -12.9160   13.6870 C   0  0  2  0  0  0  0  0  0  0  0  0
  -13.5740  -13.2210   12.3050 C   0  0  0  0  0  0  0  0  0  0  0  0
  -14.6700  -12.7720   11.9540 O   0  0  0  0  0  0  0  0  0  0  0  0
  -13.2940  -13.9580   14.7520 C   0  0  0  0  0  0  0  0  0  0  0  0
  -14.6260  -13.5210   15.2870 C   0  0  0  0  0  0  0  0  0  0  0  0
  -14.5330  -12.0110   15.3470 C   0  0  0  0  0  0  0  0  0  0  0  0
  -12.8580  -14.0350   11.5520 N   0  0  0  0  0  0  0  0  0  0  0  0
  -13.2680  -14.3870   10.2240 C   0  0  2  0  0  0  0  0  0  0  0  0
  -14.3930  -15.4350   10.2350 C   0  0  0  0  0  0  0  0  0  0  0  0
  -14.3100  -16.4520   10.9470 O   0  0  0  0  0  0  0  0  0  0  0  0
  -12.1100  -15.0210    9.4920 C   0  0  0  0  0  0  0  0  0  0  0  0
  -15.3810  -15.2270    9.3750 N   0  0  0  0  0  0  0  0  0  0  0  0
  -16.4780  -16.1360    9.0530 C   0  0  1  0  0  0  0  0  0  0  0  0
  -17.7580  -15.8540    9.8380 C   0  0  1  0  0  0  0  0  0  0  0  0
  -17.5640  -16.0020   11.3340 C   0  0  0  0  0  0  0  0  0  0  0  0
  -18.0710  -14.4450    9.5060 O   0  0  0  0  0  0  0  0  0  0  0  0
  -19.4990  -13.7930    9.8900 P   0  0  0  0  0  0  0  0  0  0  0  0
  -19.5300  -12.5680    9.0180 O   0  0  0  0  0  0  0  0  0  0  0  0
  -19.4860  -13.4590   11.3660 O   0  0  0  0  0  0  0  0  0  0  0  0
  -20.5690  -14.8050    9.5820 O   0  0  0  0  0  0  0  0  0  0  0  0
  -16.6710  -16.1490    7.5430 C   0  0  0  0  0  0  0  0  0  0  0  0
  -16.3230  -15.1940    6.8780 O   0  0  0  0  0  0  0  0  0  0  0  0
  -17.2590  -17.2230    7.0400 N   0  0  0  0  0  0  0  0  0  0  0  0
  -17.5400  -17.3610    5.6140 C   0  0  2  0  0  0  0  0  0  0  0  0
  -18.9720  -17.6540    5.3350 C   0  0  0  0  0  0  0  0  0  0  0  0
  -19.7380  -18.0130    6.2270 O   0  0  0  0  0  0  0  0  0  0  0  0
  -16.6570  -18.4230    4.9290 C   0  0  0  0  0  0  0  0  0  0  0  0
  -15.2120  -18.0120    5.0640 C   0  0  0  0  0  0  0  0  0  0  0  0
  -16.9410  -19.7970    5.4860 C   0  0  0  0  0  0  0  0  0  0  0  0
  -19.3520  -17.4910    4.1480 O   0  0  0  0  0  0  0  0  0  0  0  0
  2  1  1  6
  3  2  1  0
  4  3  2  0
  5  2  1  0
  6  5  1  0
  7  6  2  0
  8  6  1  0
  9  7  1  0
 10  8  2  0
 11 10  1  0
 11  9  2  0
 12  3  1  0
 13 12  1  0
 13 14  1  6
 15 14  2  0
 16 13  1  0
 17 16  1  0
 18 17  1  0
 18 12  1  0
 19 14  1  0
 20 19  1  0
 21 20  1  0
 22 21  2  0
 20 23  1  6
 24 21  1  0
 25 24  1  6
 26 25  1  0
 26 27  1  1
 28 26  1  0
 29 28  1  0
 30 29  1  0
 31 29  1  0
 32 29  1  0
 33 25  1  0
 34 33  1  0
 35 33  1  0
 36 35  1  1
 37 36  1  0
 38 37  2  0
 39 36  1  0
 40 39  1  0
 41 39  1  0
 42 37  1  0
M  END
$$$$
6B0F
     RDKit          3D

 33 36  0  0  0  0  0  0  0  0999 V2000
  -40.1140    7.3220  -32.4330 C   0  0  0  0  0  0  0  0  0  0  0  0
  -41.1400   10.7490  -25.2560 C   0  0  0  0  0  0  0  0  0  0  0  0
  -40.1940   11.2750  -24.3490 C   0  0  0  0  0  0  0  0  0  0  0  0
  -37.4950    5.6890  -25.7190 C   0  0  1  0  0  0  0  0  0  0  0  0
  -39.9910    6.7280  -28.1470 C   0  0  0  0  0  0  0  0  0  0  0  0
  -40.7620    5.8670  -28.9500 C   0  0  0  0  0  0  0  0  0  0  0  0
  -40.8150    6.0710  -30.3390 C   0  0  0  0  0  0  0  0  0  0  0  0
  -40.0580    7.1080  -30.9340 C   0  0  0  0  0  0  0  0  0  0  0  0
  -39.2850    7.9640  -30.1240 C   0  0  0  0  0  0  0  0  0  0  0  0
  -39.2370    7.7610  -28.7410 C   0  0  0  0  0  0  0  0  0  0  0  0
  -40.2840    6.3760  -33.3610 C   0  0  0  0  0  0  0  0  0  0  0  0
  -40.3190    6.6560  -34.8090 C   0  0  0  0  0  0  0  0  0  0  0  0
  -37.5380    4.4540  -24.9920 C   0  0  0  0  0  0  0  0  0  0  0  0
  -36.9000    3.3420  -25.5970 C   0  0  0  0  0  0  0  0  0  0  0  0
  -36.2460    3.4010  -26.8300 C   0  0  0  0  0  0  0  0  0  0  0  0
  -36.2230    4.5960  -27.5460 C   0  0  0  0  0  0  0  0  0  0  0  0
  -36.8360    5.7210  -26.9750 C   0  0  0  0  0  0  0  0  0  0  0  0
  -38.2420    4.2590  -23.6050 C   0  0  1  0  0  0  0  0  0  0  0  0
  -39.0450   10.5280  -24.0250 C   0  0  0  0  0  0  0  0  0  0  0  0
  -38.8760    9.2710  -24.6300 C   0  0  0  0  0  0  0  0  0  0  0  0
  -39.8110    8.7480  -25.5210 C   0  0  0  0  0  0  0  0  0  0  0  0
  -40.9690    9.4830  -25.8490 C   0  0  0  0  0  0  0  0  0  0  0  0
  -37.4920    8.2500  -24.3100 S   0  0  0  0  0  0  0  0  0  0  0  0
  -38.1830    7.0130  -25.3480 C   0  0  1  0  0  0  0  0  0  0  0  0
  -39.3340    7.3740  -25.9420 C   0  0  1  0  0  0  0  0  0  0  0  0
  -40.3630   12.5360  -23.7660 O   0  0  0  0  0  0  0  0  0  0  0  0
  -39.9700    6.5220  -26.7670 O   0  0  0  0  0  0  0  0  0  0  0  0
  -41.0700    5.9780  -35.4940 O   0  0  0  0  0  0  0  0  0  0  0  0
  -39.5360    7.6080  -35.3450 O   0  0  0  0  0  0  0  0  0  0  0  0
  -35.6650    2.3140  -27.3190 F   0  0  0  0  0  0  0  0  0  0  0  0
  -39.5890    4.2090  -23.8090 F   0  0  0  0  0  0  0  0  0  0  0  0
  -37.9070    2.9740  -22.7890 C   0  0  0  0  0  0  0  0  0  0  0  0
  -37.9580    5.2870  -22.7640 F   0  0  0  0  0  0  0  0  0  0  0  0
  3  2  1  0
  6  5  1  0
  7  6  1  0
  8  7  1  0
  8  1  1  0
  9  8  1  0
 10  9  1  0
 10  5  1  0
 11  1  1  0
 12 11  1  0
 13  4  1  0
 14 13  1  0
 15 14  1  0
 16 15  1  0
 17 16  1  0
  4 17  1  6
 18 13  1  0
 19  3  1  0
 20 19  1  0
 21 20  1  0
 22 21  1  0
 22  2  1  0
 23 20  1  0
 24 23  1  6
 24  4  1  0
 25 24  1  0
 25 21  1  0
 26  3  1  0
 27  5  1  0
 25 27  1  1
 28 12  1  0
 29 12  1  0
 30 15  1  0
 31 18  1  0
 18 32  1  1
 33 18  1  0
M  END
$$$$
1G50
     RDKit          3D

 20 23  0  0  0  0  0  0  0  0999 V2000
  104.0100   17.3780   24.9290 C   0  0  0  0  0  0  0  0  0  0  0  0
  102.8460   17.9870   25.5110 C   0  0  0  0  0  0  0  0  0  0  0  0
  101.5290   17.4880   25.1790 C   0  0  0  0  0  0  0  0  0  0  0  0
  100.3780   18.0690   25.7290 O   0  0  0  0  0  0  0  0  0  0  0  0
  101.3860   16.3980   24.2750 C   0  0  0  0  0  0  0  0  0  0  0  0
  102.5170   15.7810   23.6850 C   0  0  0  0  0  0  0  0  0  0  0  0
  102.2810   14.6270   22.7180 C   0  0  0  0  0  0  0  0  0  0  0  0
  103.5620   13.9870   22.0720 C   0  0  0  0  0  0  0  0  0  0  0  0
  104.8120   14.0540   22.9540 C   0  0  2  0  0  0  0  0  0  0  0  0
  105.1190   15.5650   23.3380 C   0  0  1  0  0  0  0  0  0  0  0  0
  103.8780   16.2620   24.0080 C   0  0  0  0  0  0  0  0  0  0  0  0
  106.4090   15.5880   24.2050 C   0  0  0  0  0  0  0  0  0  0  0  0
  107.6470   14.9140   23.5370 C   0  0  0  0  0  0  0  0  0  0  0  0
  107.3650   13.4590   23.1300 C   0  0  1  0  0  0  0  0  0  0  0  0
  106.0610   13.4280   22.2360 C   0  0  1  0  0  0  0  0  0  0  0  0
  106.0620   11.9820   21.7250 C   0  0  0  0  0  0  0  0  0  0  0  0
  107.5710   11.7490   21.3410 C   0  0  0  0  0  0  0  0  0  0  0  0
  108.3520   12.8450   22.1120 C   0  0  2  0  0  0  0  0  0  0  0  0
  109.5470   12.2750   22.6740 O   0  0  0  0  0  0  0  0  0  0  0  0
  107.3140   12.5550   24.4260 C   0  0  0  0  0  0  0  0  0  0  0  0
  2  1  1  0
  3  2  1  0
  4  3  1  0
  5  3  1  0
  6  5  1  0
  7  6  1  0
  8  7  1  0
  9  8  1  6
 10  9  1  0
 11  6  1  0
 11 10  1  0
 11  1  1  0
 10 12  1  1
 13 12  1  0
 14 13  1  0
 15 14  1  0
 15  9  1  0
 15 16  1  1
 17 16  1  0
 18 17  1  0
 18 14  1  0
 18 19  1  1
 14 20  1  1
M  END
$$$$
7QVL
     RDKit          3D

 36 39  0  0  0  0  0  0  0  0999 V2000
   18.2820  -13.2660   12.7260 C   0  0  0  0  0  0  0  0  0  0  0  0
   18.5340  -12.7060   11.4700 C   0  0  0  0  0  0  0  0  0  0  0  0
   18.4150  -13.5500   10.3790 C   0  0  0  0  0  0  0  0  0  0  0  0
   17.9830  -16.9410   15.4990 C   0  0  0  0  0  0  0  0  0  0  0  0
   17.8980  -18.7000   17.1930 C   0  0  0  0  0  0  0  0  0  0  0  0
   17.9620  -20.2060   17.3330 C   0  0  0  0  0  0  0  0  0  0  0  0
   16.6160  -20.8660   17.3200 C   0  0  0  0  0  0  0  0  0  0  0  0
   18.9290  -11.2340   11.3270 C   0  0  2  0  0  0  0  0  0  0  0  0
   20.0400  -10.8570   12.2590 C   0  0  0  0  0  0  0  0  0  0  0  0
   20.0830   -9.7310   13.0210 C   0  0  0  0  0  0  0  0  0  0  0  0
   21.3170   -9.7690   13.7540 C   0  0  0  0  0  0  0  0  0  0  0  0
   21.9290   -8.9300   14.6810 C   0  0  0  0  0  0  0  0  0  0  0  0
   23.1610   -9.2770   15.2150 C   0  0  0  0  0  0  0  0  0  0  0  0
   21.9740  -10.9560   13.3850 C   0  0  0  0  0  0  0  0  0  0  0  0
   18.9790   -8.7220   12.9980 C   0  0  0  0  0  0  0  0  0  0  0  0
   18.1240   -8.9270   11.7500 C   0  0  2  0  0  0  0  0  0  0  0  0
   16.7540  -10.4900   10.4890 C   0  0  0  0  0  0  0  0  0  0  0  0
   14.9480  -10.5740   12.2280 C   0  0  0  0  0  0  0  0  0  0  0  0
   13.8510  -10.2480    9.5900 O   0  0  0  0  0  0  0  0  0  0  0  0
   14.4680  -11.2350    9.9030 C   0  0  0  0  0  0  0  0  0  0  0  0
   14.3000  -12.3960    9.3460 O   0  0  0  0  0  0  0  0  0  0  0  0
   15.5170  -11.2440   10.9820 C   0  0  1  0  0  0  0  0  0  0  0  0
   17.7740  -10.3510   11.5630 N   0  0  0  0  0  0  0  0  0  0  0  0
   18.7700   -8.3240   10.5180 C   0  0  0  0  0  0  0  0  0  0  0  0
   23.2070  -11.3070   13.9180 C   0  0  0  0  0  0  0  0  0  0  0  0
   23.7950  -10.4510   14.8360 C   0  0  0  0  0  0  0  0  0  0  0  0
   21.1750  -11.6140   12.4640 N   0  0  0  0  0  0  0  0  0  0  0  0
   18.6470  -13.0400    9.1520 F   0  0  0  0  0  0  0  0  0  0  0  0
   18.0700  -14.8590   10.5150 C   0  0  0  0  0  0  0  0  0  0  0  0
   17.8240  -15.4160   11.7020 N   0  0  0  0  0  0  0  0  0  0  0  0
   17.9310  -14.6380   12.7630 C   0  0  0  0  0  0  0  0  0  0  0  0
   18.3810  -12.4360   13.9820 C   0  0  0  0  0  0  0  0  0  0  0  0
   17.6950  -15.1460   13.9850 O   0  0  0  0  0  0  0  0  0  0  0  0
   17.5660  -16.5680   14.1080 C   0  0  0  0  0  0  0  0  0  0  0  0
   17.5170  -18.2850   15.8430 N   0  0  0  0  0  0  0  0  0  0  0  0
   15.9590  -20.6030   18.5090 F   0  0  0  0  0  0  0  0  0  0  0  0
  2  1  1  0
  3  2  1  0
  6  5  1  0
  7  6  1  0
  8  2  1  1
  9  8  1  0
 10  9  1  0
 11 10  1  0
 12 11  1  0
 13 12  1  0
 14 11  1  0
 15 10  1  0
 16 15  1  0
 20 19  1  0
 21 20  1  0
 22 20  1  0
 22 18  1  1
 22 17  1  0
 23  8  1  0
 23 17  1  0
 23 16  1  0
 16 24  1  6
 25 14  1  0
 26 25  1  0
 26 13  1  0
 27  9  1  0
 27 14  1  0
 28  3  1  0
 29  3  1  0
 30 29  1  0
 31 30  1  0
 31  1  1  0
 32  1  1  0
 33 31  1  0
 34  4  1  0
 34 33  1  0
 35  4  1  0
 35  5  1  0
 36  7  1  0
M  END
$$$$
5KRA
     RDKit          3D

 75 75  0  0  0  0  0  0  0  0999 V2000
  -38.4100  -39.4780   -7.8330 N   0  0  0  0  0  0  0  0  0  0  0  0
  -38.6960  -39.4600   -9.2630 C   0  0  2  0  0  0  0  0  0  0  0  0
  -40.0400  -38.7980   -9.5420 C   0  0  0  0  0  0  0  0  0  0  0  0
  -40.7080  -39.1240  -10.5230 O   0  0  0  0  0  0  0  0  0  0  0  0
  -38.6780  -40.8790   -9.8350 C   0  0  0  0  0  0  0  0  0  0  0  0
  -40.4360  -37.8780   -8.6670 N   0  0  0  0  0  0  0  0  0  0  0  0
  -41.6430  -37.0890   -8.8810 C   0  0  2  0  0  0  0  0  0  0  0  0
  -41.5330  -36.3310  -10.1940 C   0  0  0  0  0  0  0  0  0  0  0  0
  -42.4910  -36.2490  -10.9610 O   0  0  0  0  0  0  0  0  0  0  0  0
  -41.8840  -36.0920   -7.7340 C   0  0  2  0  0  0  0  0  0  0  0  0
  -42.0430  -36.8360   -6.4070 C   0  0  0  0  0  0  0  0  0  0  0  0
  -43.1060  -35.2340   -8.0200 C   0  0  0  0  0  0  0  0  0  0  0  0
  -42.3170  -35.9300   -5.2280 C   0  0  0  0  0  0  0  0  0  0  0  0
  -40.3450  -35.7920  -10.4480 N   0  0  0  0  0  0  0  0  0  0  0  0
  -40.0650  -35.0730  -11.6840 C   0  0  2  0  0  0  0  0  0  0  0  0
  -40.2720  -35.9740  -12.8970 C   0  0  0  0  0  0  0  0  0  0  0  0
  -40.7710  -35.5330  -13.9320 O   0  0  0  0  0  0  0  0  0  0  0  0
  -38.6360  -34.5210  -11.6630 C   0  0  0  0  0  0  0  0  0  0  0  0
  -38.0840  -33.9100  -12.9530 C   0  0  0  0  0  0  0  0  0  0  0  0
  -38.9780  -32.7890  -13.4500 C   0  0  0  0  0  0  0  0  0  0  0  0
  -36.6650  -33.4070  -12.7380 C   0  0  0  0  0  0  0  0  0  0  0  0
  -39.8960  -37.2410  -12.7560 N   0  0  0  0  0  0  0  0  0  0  0  0
  -40.0580  -38.2130  -13.8310 C   0  0  2  0  0  0  0  0  0  0  0  0
  -41.5350  -38.5120  -14.0700 C   0  0  0  0  0  0  0  0  0  0  0  0
  -41.9580  -38.7540  -15.2020 O   0  0  0  0  0  0  0  0  0  0  0  0
  -39.3050  -39.5040  -13.5040 C   0  0  0  0  0  0  0  0  0  0  0  0
  -39.0320  -40.3640  -14.6980 C   0  0  0  0  0  0  0  0  0  0  0  0
  -38.0870  -40.0390  -15.6480 N   0  0  0  0  0  0  0  0  0  0  0  0
  -39.5790  -41.5370  -15.0970 C   0  0  0  0  0  0  0  0  0  0  0  0
  -38.0630  -40.9740  -16.5800 C   0  0  0  0  0  0  0  0  0  0  0  0
  -38.9590  -41.8950  -16.2700 N   0  0  0  0  0  0  0  0  0  0  0  0
  -42.3150  -38.4930  -12.9950 N   0  0  0  0  0  0  0  0  0  0  0  0
  -43.7470  -38.7430  -13.0830 C   0  0  2  0  0  0  0  0  0  0  0  0
  -44.4490  -37.6050  -13.8130 C   0  0  0  0  0  0  0  0  0  0  0  0
  -45.3440  -37.8320  -14.6270 O   0  0  0  0  0  0  0  0  0  0  0  0
  -44.3480  -38.9220  -11.6880 C   0  0  0  0  0  0  0  0  0  0  0  0
  -45.8380  -39.2210  -11.6870 C   0  0  0  0  0  0  0  0  0  0  0  0
  -46.5780  -38.3500  -10.6830 C   0  0  0  0  0  0  0  0  0  0  0  0
  -46.0290  -38.4760   -9.3360 N   0  0  0  0  0  0  0  0  0  0  0  0
  -46.4840  -37.8100   -8.2790 C   0  0  0  0  0  0  0  0  0  0  0  0
  -47.5000  -36.9670   -8.4110 N   0  0  0  0  0  0  0  0  0  0  0  0
  -45.9230  -37.9860   -7.0900 N   0  0  0  0  0  0  0  0  0  0  0  0
  -44.0320  -36.3790  -13.5200 N   0  0  0  0  0  0  0  0  0  0  0  0
  -44.6680  -35.2020  -14.0930 C   0  0  2  0  0  0  0  0  0  0  0  0
  -44.2410  -34.9760  -15.5400 C   0  0  0  0  0  0  0  0  0  0  0  0
  -44.8830  -34.2270  -16.2740 O   0  0  0  0  0  0  0  0  0  0  0  0
  -44.3480  -33.9640  -13.2520 C   0  0  0  0  0  0  0  0  0  0  0  0
  -44.7170  -34.0430  -11.7690 C   0  0  0  0  0  0  0  0  0  0  0  0
  -44.4680  -32.7130  -11.0760 C   0  0  0  0  0  0  0  0  0  0  0  0
  -46.1600  -34.4830  -11.5910 C   0  0  0  0  0  0  0  0  0  0  0  0
  -43.1610  -35.6330  -15.9490 N   0  0  0  0  0  0  0  0  0  0  0  0
  -42.6040  -35.4210  -17.2810 C   0  0  2  0  0  0  0  0  0  0  0  0
  -43.2510  -36.2900  -18.3590 C   0  0  0  0  0  0  0  0  0  0  0  0
  -42.7990  -36.2940  -19.5040 O   0  0  0  0  0  0  0  0  0  0  0  0
  -41.0940  -35.6690  -17.2670 C   0  0  0  0  0  0  0  0  0  0  0  0
  -40.2060  -34.4400  -17.0640 C   0  0  0  0  0  0  0  0  0  0  0  0
  -38.7400  -34.8380  -17.0490 C   0  0  0  0  0  0  0  0  0  0  0  0
  -40.4710  -33.4100  -18.1500 C   0  0  0  0  0  0  0  0  0  0  0  0
  -44.3060  -37.0160  -18.0040 N   0  0  0  0  0  0  0  0  0  0  0  0
  -44.9490  -37.9120  -18.9610 C   0  0  2  0  0  0  0  0  0  0  0  0
  -46.4690  -37.9650  -18.8150 C   0  0  0  0  0  0  0  0  0  0  0  0
  -47.1530  -38.5680  -19.6410 O   0  0  0  0  0  0  0  0  0  0  0  0
  -44.3620  -39.3210  -18.8310 C   0  0  0  0  0  0  0  0  0  0  0  0
  -44.2100  -39.8070  -17.3990 C   0  0  0  0  0  0  0  0  0  0  0  0
  -43.4770  -41.1330  -17.3120 C   0  0  0  0  0  0  0  0  0  0  0  0
  -43.0110  -41.6640  -18.3200 O   0  0  0  0  0  0  0  0  0  0  0  0
  -43.3730  -41.6740  -16.1030 N   0  0  0  0  0  0  0  0  0  0  0  0
  -46.9950  -37.3320  -17.7710 N   0  0  0  0  0  0  0  0  0  0  0  0
  -48.4380  -37.3060  -17.5500 C   0  0  2  0  0  0  0  0  0  0  0  0
  -49.1590  -36.4870  -18.6170 C   0  0  0  0  0  0  0  0  0  0  0  0
  -50.3260  -36.7400  -18.9250 O   0  0  0  0  0  0  0  0  0  0  0  0
  -48.7600  -36.7520  -16.1610 C   0  0  0  0  0  0  0  0  0  0  0  0
  -48.6050  -37.7910  -15.0690 C   0  0  0  0  0  0  0  0  0  0  0  0
  -48.7960  -38.9910  -15.3590 O   0  0  0  0  0  0  0  0  0  0  0  0
  -48.2970  -37.4090  -13.9210 O   0  0  0  0  0  0  0  0  0  0  0  0
  2  1  1  0
  3  2  1  0
  4  3  2  0
  2  5  1  1
  6  3  1  0
  7  6  1  1
  8  7  1  0
  9  8  2  0
 10  7  1  0
 11 10  1  0
 10 12  1  6
 13 11  1  0
 14  8  1  0
 15 14  1  0
 16 15  1  0
 17 16  2  0
 15 18  1  1
 19 18  1  0
 20 19  1  0
 21 19  1  0
 22 16  1  0
 23 22  1  0
 24 23  1  0
 25 24  2  0
 23 26  1  1
 27 26  1  0
 28 27  1  0
 29 27  2  0
 30 28  2  0
 31 29  1  0
 31 30  1  0
 32 24  1  0
 33 32  1  0
 34 33  1  0
 35 34  2  0
 33 36  1  1
 37 36  1  0
 38 37  1  0
 39 38  1  0
 40 39  1  0
 41 40  1  0
 42 40  2  0
 43 34  1  0
 44 43  1  0
 45 44  1  0
 46 45  2  0
 44 47  1  1
 48 47  1  0
 49 48  1  0
 50 48  1  0
 51 45  1  0
 52 51  1  0
 53 52  1  0
 54 53  2  0
 52 55  1  1
 56 55  1  0
 57 56  1  0
 58 56  1  0
 59 53  1  0
 60 59  1  0
 61 60  1  0
 62 61  2  0
 60 63  1  1
 64 63  1  0
 65 64  1  0
 66 65  2  0
 67 65  1  0
 68 61  1  0
 69 68  1  0
 70 69  1  0
 71 70  2  0
 69 72  1  1
 73 72  1  0
 74 73  2  0
 75 73  1  0
M  END
$$$$
4JDD
     RDKit          3D

 42 43  0  0  0  0  0  0  0  0999 V2000
  -12.7300   -7.7990   15.7490 N   0  0  0  0  0  0  0  0  0  0  0  0
  -13.7150   -8.6890   15.0490 C   0  0  2  0  0  0  0  0  0  0  0  0
  -13.0250   -9.8440   14.3150 C   0  0  0  0  0  0  0  0  0  0  0  0
  -12.0300   -9.6270   13.5780 O   0  0  0  0  0  0  0  0  0  0  0  0
  -14.6390   -7.8960   14.1160 C   0  0  0  0  0  0  0  0  0  0  0  0
  -15.6080   -7.0110   14.8590 C   0  0  0  0  0  0  0  0  0  0  0  0
  -16.5860   -7.5750   15.7090 C   0  0  0  0  0  0  0  0  0  0  0  0
  -15.5180   -5.6120   14.7600 C   0  0  0  0  0  0  0  0  0  0  0  0
  -17.4610   -6.7550   16.4130 C   0  0  0  0  0  0  0  0  0  0  0  0
  -16.3920   -4.7880   15.4720 C   0  0  0  0  0  0  0  0  0  0  0  0
  -17.3570   -5.3650   16.3030 C   0  0  0  0  0  0  0  0  0  0  0  0
  -13.5210  -11.0530   14.5380 N   0  0  0  0  0  0  0  0  0  0  0  0
  -12.9040  -12.2350   13.9540 C   0  0  2  0  0  0  0  0  0  0  0  0
  -13.5480  -12.5530   12.6210 C   0  0  0  0  0  0  0  0  0  0  0  0
  -14.6180  -12.1150   12.3990 O   0  0  0  0  0  0  0  0  0  0  0  0
  -13.2150  -13.3200   14.9740 C   0  0  0  0  0  0  0  0  0  0  0  0
  -14.4890  -12.8910   15.5670 C   0  0  0  0  0  0  0  0  0  0  0  0
  -14.5740  -11.4120   15.4920 C   0  0  0  0  0  0  0  0  0  0  0  0
  -12.8740  -13.3140   11.7880 N   0  0  0  0  0  0  0  0  0  0  0  0
  -13.3840  -13.6150   10.5200 C   0  0  2  0  0  0  0  0  0  0  0  0
  -14.3680  -14.7620   10.5380 C   0  0  0  0  0  0  0  0  0  0  0  0
  -14.1960  -15.7320   11.2410 O   0  0  0  0  0  0  0  0  0  0  0  0
  -12.2920  -13.8420    9.5250 C   0  0  0  0  0  0  0  0  0  0  0  0
  -15.3710  -14.5530    9.7250 N   0  0  0  0  0  0  0  0  0  0  0  0
  -16.4020  -15.4910    9.4100 C   0  0  1  0  0  0  0  0  0  0  0  0
  -17.7150  -15.0880   10.0880 C   0  0  1  0  0  0  0  0  0  0  0  0
  -17.6510  -15.2290   11.5950 C   0  0  0  0  0  0  0  0  0  0  0  0
  -18.1660  -13.8020    9.6980 O   0  0  0  0  0  0  0  0  0  0  0  0
  -19.5970  -13.2430   10.0180 P   0  0  0  0  0  0  0  0  0  0  0  0
  -19.5990  -12.9270   11.3730 O   0  0  0  0  0  0  0  0  0  0  0  0
  -19.6260  -12.0860    9.2110 O   0  0  0  0  0  0  0  0  0  0  0  0
  -20.5480  -14.2780    9.6840 O   0  0  0  0  0  0  0  0  0  0  0  0
  -16.5370  -15.5390    7.9130 C   0  0  0  0  0  0  0  0  0  0  0  0
  -16.0250  -14.6840    7.2590 O   0  0  0  0  0  0  0  0  0  0  0  0
  -17.2310  -16.5440    7.3990 N   0  0  0  0  0  0  0  0  0  0  0  0
  -17.4110  -16.7730    5.9730 C   0  0  2  0  0  0  0  0  0  0  0  0
  -18.8660  -17.1050    5.5970 C   0  0  0  0  0  0  0  0  0  0  0  0
  -19.1850  -16.8370    4.4380 O   0  0  0  0  0  0  0  0  0  0  0  0
  -16.4740  -17.8620    5.4670 C   0  0  0  0  0  0  0  0  0  0  0  0
  -17.0030  -19.2640    5.6170 C   0  0  0  0  0  0  0  0  0  0  0  0
  -16.0870  -17.5870    4.0720 C   0  0  0  0  0  0  0  0  0  0  0  0
  -19.5350  -17.6300    6.5120 O   0  0  0  0  0  0  0  0  0  0  0  0
  2  1  1  6
  3  2  1  0
  4  3  2  0
  5  2  1  0
  6  5  1  0
  7  6  2  0
  8  6  1  0
  9  7  1  0
 10  8  2  0
 11  9  2  0
 11 10  1  0
 12  3  1  0
 13 12  1  0
 13 14  1  6
 15 14  2  0
 16 13  1  0
 17 16  1  0
 18 17  1  0
 18 12  1  0
 19 14  1  0
 20 19  1  0
 21 20  1  0
 22 21  2  0
 20 23  1  6
 24 21  1  0
 25 24  1  6
 26 25  1  0
 26 27  1  1
 28 26  1  0
 29 28  1  0
 30 29  1  0
 31 29  1  0
 32 29  1  0
 33 25  1  0
 34 33  1  0
 35 33  1  0
 36 35  1  1
 37 36  1  0
 38 37  2  0
 39 36  1  0
 40 39  1  0
 41 39  1  0
 42 37  1  0
M  END
$$$$
1L2I
     RDKit          3D

 24 27  0  0  0  0  0  0  0  0999 V2000
    3.9640   -2.1790   -8.4880 C   0  0  0  0  0  0  0  0  0  0  0  0
    4.5360   -1.0410   -7.6600 C   0  0  0  0  0  0  0  0  0  0  0  0
    5.4390   -1.5870   -6.5520 C   0  0  2  0  0  0  0  0  0  0  0  0
    4.6350   -2.4910   -5.6090 C   0  0  0  0  0  0  0  0  0  0  0  0
    6.0850   -0.4220   -5.7910 C   0  0  0  0  0  0  0  0  0  0  0  0
    5.5070    0.0830   -4.6820 C   0  0  0  0  0  0  0  0  0  0  0  0
    4.2170   -0.4460   -4.1890 C   0  0  1  0  0  0  0  0  0  0  0  0
    3.4130    0.2930   -3.2850 C   0  0  0  0  0  0  0  0  0  0  0  0
    2.1580   -0.1860   -2.9140 C   0  0  0  0  0  0  0  0  0  0  0  0
    1.7160   -1.3920   -3.4430 C   0  0  0  0  0  0  0  0  0  0  0  0
    0.4760   -1.8460   -3.0990 O   0  0  0  0  0  0  0  0  0  0  0  0
    2.4840   -2.1450   -4.3300 C   0  0  0  0  0  0  0  0  0  0  0  0
    3.7390   -1.6670   -4.6980 C   0  0  2  0  0  0  0  0  0  0  0  0
    7.3370    0.1140   -6.2900 C   0  0  0  0  0  0  0  0  0  0  0  0
    8.1930    0.7930   -5.4040 C   0  0  0  0  0  0  0  0  0  0  0  0
    7.7310    1.0630   -3.9850 C   0  0  0  0  0  0  0  0  0  0  0  0
    6.1920    1.2490   -3.9340 C   0  0  1  0  0  0  0  0  0  0  0  0
    5.8320    2.6020   -4.5790 C   0  0  0  0  0  0  0  0  0  0  0  0
    4.3620    2.9590   -4.3560 C   0  0  0  0  0  0  0  0  0  0  0  0
    9.4540    1.2060   -5.8240 C   0  0  0  0  0  0  0  0  0  0  0  0
    9.8200    0.9790   -7.1530 C   0  0  0  0  0  0  0  0  0  0  0  0
   11.0570    1.3620   -7.5660 O   0  0  0  0  0  0  0  0  0  0  0  0
    8.9770    0.3520   -8.0650 C   0  0  0  0  0  0  0  0  0  0  0  0
    7.7280   -0.0790   -7.6410 C   0  0  0  0  0  0  0  0  0  0  0  0
  2  1  1  0
  3  2  1  6
  4  3  1  0
  5  3  1  0
  6  5  1  0
  7  6  1  0
  7  8  1  6
  9  8  1  0
 10  9  1  0
 11 10  1  0
 12 10  1  0
 13  4  1  1
 13 12  1  0
 13  7  1  0
 14  5  1  0
 15 14  1  0
 16 15  1  0
 17 16  1  0
 17  6  1  0
 17 18  1  6
 19 18  1  0
 20 15  1  0
 21 20  1  0
 22 21  1  0
 23 21  1  0
 24 23  1  0
 24 14  1  0
M  END
$$$$
5DZ3
     RDKit          3D

 73 73  0  0  0  0  0  0  0  0999 V2000
    8.1200  -16.5270   34.0730 N   0  0  0  0  0  0  0  0  0  0  0  0
    8.0760  -15.1070   33.7440 C   0  0  2  0  0  0  0  0  0  0  0  0
    7.0940  -14.3680   34.6490 C   0  0  0  0  0  0  0  0  0  0  0  0
    5.9510  -14.7930   34.8180 O   0  0  0  0  0  0  0  0  0  0  0  0
    7.6980  -14.9090   32.2750 C   0  0  0  0  0  0  0  0  0  0  0  0
    7.6960  -13.4590   31.8230 C   0  0  0  0  0  0  0  0  0  0  0  0
    7.4580  -13.3460   30.3260 C   0  0  0  0  0  0  0  0  0  0  0  0
    8.5620  -14.0340   29.5390 C   0  0  0  0  0  0  0  0  0  0  0  0
    8.3730  -13.8880   28.0690 N   0  0  0  0  0  0  0  0  0  0  0  0
    7.5500  -13.2600   35.2260 N   0  0  0  0  0  0  0  0  0  0  0  0
    6.7490  -12.4910   36.1750 C   0  0  2  0  0  0  0  0  0  0  0  0
    5.5220  -11.8650   35.5180 C   0  0  0  0  0  0  0  0  0  0  0  0
    4.4220  -11.9120   36.0700 O   0  0  0  0  0  0  0  0  0  0  0  0
    7.5860  -11.3790   36.8360 C   0  0  2  0  0  0  0  0  0  0  0  0
    8.8000  -11.9800   37.5440 C   0  0  0  0  0  0  0  0  0  0  0  0
    6.7400  -10.5740   37.8120 C   0  0  0  0  0  0  0  0  0  0  0  0
    9.6680  -10.9570   38.2330 C   0  0  0  0  0  0  0  0  0  0  0  0
    5.7190  -11.2800   34.3410 N   0  0  0  0  0  0  0  0  0  0  0  0
    4.6350  -10.6360   33.6070 C   0  0  2  0  0  0  0  0  0  0  0  0
    3.5190  -11.6250   33.2770 C   0  0  0  0  0  0  0  0  0  0  0  0
    2.3380  -11.2780   33.3150 O   0  0  0  0  0  0  0  0  0  0  0  0
    5.1680   -9.9940   32.3240 C   0  0  0  0  0  0  0  0  0  0  0  0
    4.1360   -9.3180   31.4200 C   0  0  0  0  0  0  0  0  0  0  0  0
    3.3670   -8.2560   32.1880 C   0  0  0  0  0  0  0  0  0  0  0  0
    4.8080   -8.7140   30.1980 C   0  0  0  0  0  0  0  0  0  0  0  0
    3.9030  -12.8570   32.9590 N   0  0  0  0  0  0  0  0  0  0  0  0
    2.9420  -13.9040   32.6380 C   0  0  2  0  0  0  0  0  0  0  0  0
    2.1000  -14.2790   33.8550 C   0  0  0  0  0  0  0  0  0  0  0  0
    0.9170  -14.5950   33.7310 O   0  0  0  0  0  0  0  0  0  0  0  0
    3.6620  -15.1410   32.0990 C   0  0  0  0  0  0  0  0  0  0  0  0
    2.7460  -16.2760   31.7650 C   0  0  0  0  0  0  0  0  0  0  0  0
    1.8750  -16.2410   30.6980 N   0  0  0  0  0  0  0  0  0  0  0  0
    2.5630  -17.4790   32.3600 C   0  0  0  0  0  0  0  0  0  0  0  0
    1.1960  -17.3730   30.6480 C   0  0  0  0  0  0  0  0  0  0  0  0
    1.5950  -18.1420   31.6450 N   0  0  0  0  0  0  0  0  0  0  0  0
    2.7200  -14.2390   35.0290 N   0  0  0  0  0  0  0  0  0  0  0  0
    2.0410  -14.5970   36.2690 C   0  0  2  0  0  0  0  0  0  0  0  0
    1.0930  -13.4950   36.7310 C   0  0  0  0  0  0  0  0  0  0  0  0
   -0.0180  -13.7710   37.1850 O   0  0  0  0  0  0  0  0  0  0  0  0
    3.0620  -14.9010   37.3680 C   0  0  0  0  0  0  0  0  0  0  0  0
    1.5370  -12.2480   36.6140 N   0  0  0  0  0  0  0  0  0  0  0  0
    0.7390  -11.1070   37.0480 C   0  0  2  0  0  0  0  0  0  0  0  0
   -0.4930  -10.9160   36.1700 C   0  0  0  0  0  0  0  0  0  0  0  0
   -1.5150  -10.4010   36.6250 O   0  0  0  0  0  0  0  0  0  0  0  0
    1.5860   -9.8330   37.0510 C   0  0  0  0  0  0  0  0  0  0  0  0
    2.7470   -9.8110   38.0490 C   0  0  0  0  0  0  0  0  0  0  0  0
    3.5280   -8.5110   37.9440 C   0  0  0  0  0  0  0  0  0  0  0  0
    2.2370  -10.0190   39.4660 C   0  0  0  0  0  0  0  0  0  0  0  0
   -0.3930  -11.3320   34.9110 N   0  0  0  0  0  0  0  0  0  0  0  0
   -1.5210  -11.2480   33.9890 C   0  0  2  0  0  0  0  0  0  0  0  0
   -2.5920  -12.2760   34.3370 C   0  0  0  0  0  0  0  0  0  0  0  0
   -3.7770  -12.0600   34.0820 O   0  0  0  0  0  0  0  0  0  0  0  0
   -1.0520  -11.4380   32.5450 C   0  0  0  0  0  0  0  0  0  0  0  0
   -0.4350  -10.2030   31.8880 C   0  0  0  0  0  0  0  0  0  0  0  0
    0.1210  -10.5400   30.5160 C   0  0  0  0  0  0  0  0  0  0  0  0
   -1.4680   -9.0930   31.7870 C   0  0  0  0  0  0  0  0  0  0  0  0
   -2.1710  -13.3940   34.9210 N   0  0  0  0  0  0  0  0  0  0  0  0
   -3.1070  -14.4190   35.3680 C   0  0  2  0  0  0  0  0  0  0  0  0
   -3.8610  -13.9580   36.6100 C   0  0  0  0  0  0  0  0  0  0  0  0
   -5.0910  -13.9660   36.6400 O   0  0  0  0  0  0  0  0  0  0  0  0
   -2.3770  -15.7330   35.6540 C   0  0  0  0  0  0  0  0  0  0  0  0
   -1.8780  -16.4520   34.4130 C   0  0  0  0  0  0  0  0  0  0  0  0
   -1.2360  -17.7870   34.7320 C   0  0  0  0  0  0  0  0  0  0  0  0
   -0.6310  -17.9620   35.7900 O   0  0  0  0  0  0  0  0  0  0  0  0
   -1.3690  -18.7420   33.8170 N   0  0  0  0  0  0  0  0  0  0  0  0
   -3.1120  -13.5570   37.6320 N   0  0  0  0  0  0  0  0  0  0  0  0
   -3.7020  -13.0790   38.8770 C   0  0  2  0  0  0  0  0  0  0  0  0
   -4.3380  -11.7050   38.6960 C   0  0  0  0  0  0  0  0  0  0  0  0
   -5.4800  -11.5930   38.2510 O   0  0  0  0  0  0  0  0  0  0  0  0
   -2.6460  -13.0280   39.9830 C   0  0  0  0  0  0  0  0  0  0  0  0
   -2.1030  -14.3990   40.3340 C   0  0  0  0  0  0  0  0  0  0  0  0
   -2.9090  -15.3430   40.4680 O   0  0  0  0  0  0  0  0  0  0  0  0
   -0.8690  -14.5330   40.4720 O   0  0  0  0  0  0  0  0  0  0  0  0
  2  1  1  1
  3  2  1  0
  4  3  2  0
  5  2  1  0
  6  5  1  0
  7  6  1  0
  8  7  1  0
  9  8  1  0
 10  3  1  0
 11 10  1  6
 12 11  1  0
 13 12  2  0
 14 11  1  0
 15 14  1  0
 14 16  1  1
 17 15  1  0
 18 12  1  0
 19 18  1  0
 20 19  1  0
 21 20  2  0
 19 22  1  6
 23 22  1  0
 24 23  1  0
 25 23  1  0
 26 20  1  0
 27 26  1  0
 28 27  1  0
 29 28  2  0
 27 30  1  1
 31 30  1  0
 32 31  1  0
 33 31  2  0
 34 32  2  0
 35 34  1  0
 35 33  1  0
 36 28  1  0
 37 36  1  0
 38 37  1  0
 39 38  2  0
 37 40  1  1
 41 38  1  0
 42 41  1  0
 43 42  1  0
 44 43  2  0
 42 45  1  6
 46 45  1  0
 47 46  1  0
 48 46  1  0
 49 43  1  0
 50 49  1  0
 51 50  1  0
 52 51  2  0
 50 53  1  6
 54 53  1  0
 55 54  1  0
 56 54  1  0
 57 51  1  0
 58 57  1  0
 59 58  1  0
 60 59  2  0
 58 61  1  1
 62 61  1  0
 63 62  1  0
 64 63  2  0
 65 63  1  0
 66 59  1  0
 67 66  1  0
 68 67  1  0
 69 68  2  0
 67 70  1  1
 71 70  1  0
 72 71  2  0
 73 71  1  0
M  END
$$$$
7RS4
     RDKit          3D

 32 35  0  0  0  0  0  0  0  0999 V2000
   -6.7680   -7.8470  -19.1310 C   0  0  0  0  0  0  0  0  0  0  0  0
   -6.7650   -9.1260  -19.6670 C   0  0  0  0  0  0  0  0  0  0  0  0
   -5.6560   -9.6770  -20.3000 C   0  0  0  0  0  0  0  0  0  0  0  0
   -3.3510   -9.4410  -21.0610 C   0  0  1  0  0  0  0  0  0  0  0  0
   -3.4110   -9.5080  -22.6080 C   0  0  0  0  0  0  0  0  0  0  0  0
   -2.0360   -9.7190  -20.3350 C   0  0  2  0  0  0  0  0  0  0  0  0
   -2.8840  -10.5110  -18.2120 C   0  0  0  0  0  0  0  0  0  0  0  0
   -1.7870  -10.0090  -16.1470 C   0  0  1  0  0  0  0  0  0  0  0  0
   -1.6150  -10.1350  -14.7840 C   0  0  0  0  0  0  0  0  0  0  0  0
   -2.7010  -10.6130  -13.8600 C   0  0  0  0  0  0  0  0  0  0  0  0
   -2.3430  -10.7870  -12.4050 C   0  0  0  0  0  0  0  0  0  0  0  0
   -0.8680  -10.1170  -21.0090 C   0  0  1  0  0  0  0  0  0  0  0  0
    0.9630  -11.7030  -21.3210 C   0  0  0  0  0  0  0  0  0  0  0  0
    0.9450   -9.7190  -22.5400 C   0  0  0  0  0  0  0  0  0  0  0  0
   -1.1830  -10.5600  -12.0040 O   0  0  0  0  0  0  0  0  0  0  0  0
   -3.1990  -11.1970  -11.6100 O   0  0  0  0  0  0  0  0  0  0  0  0
   -0.8150   -9.2980  -16.8570 C   0  0  0  0  0  0  0  0  0  0  0  0
   -0.9070   -9.1970  -18.2450 C   0  0  0  0  0  0  0  0  0  0  0  0
   -2.8200  -10.6390  -16.8380 C   0  0  0  0  0  0  0  0  0  0  0  0
   -1.9600   -9.7740  -18.9250 C   0  0  1  0  0  0  0  0  0  0  0  0
   -3.9400   -8.2180  -23.2300 C   0  0  0  0  0  0  0  0  0  0  0  0
   -4.4740   -8.9350  -20.3930 C   0  0  1  0  0  0  0  0  0  0  0  0
   -4.5130   -7.6320  -19.8460 C   0  0  0  0  0  0  0  0  0  0  0  0
   -3.1820   -6.5340  -19.8480 Cl  0  0  0  0  0  0  0  0  0  0  0  0
   -5.6360   -7.0980  -19.2300 C   0  0  0  0  0  0  0  0  0  0  0  0
   -7.8310   -7.3650  -18.5210 F   0  0  0  0  0  0  0  0  0  0  0  0
   -0.2070   -9.3030  -21.9280 C   0  0  0  0  0  0  0  0  0  0  0  0
    1.7060   -9.1340  -23.4770 C   0  0  0  0  0  0  0  0  0  0  0  0
    2.7530   -9.9250  -23.7190 N   0  0  0  0  0  0  0  0  0  0  0  0
    2.6630  -11.0410  -22.9420 N   0  0  0  0  0  0  0  0  0  0  0  0
    1.5350  -10.8910  -22.2170 C   0  0  0  0  0  0  0  0  0  0  0  0
   -0.2180  -11.3180  -20.6750 C   0  0  0  0  0  0  0  0  0  0  0  0
  2  1  1  0
  3  2  1  0
  4  5  1  6
  6  4  1  0
  8  9  1  6
 10  9  1  0
 11 10  1  0
  6 12  1  6
 15 11  1  0
 16 11  1  0
 17  8  1  0
 18 17  1  0
 19  7  1  0
 19  8  1  0
 20 18  1  6
 20  7  1  0
 20  6  1  0
 21  5  1  0
 22  3  1  6
 22  4  1  0
 23 22  1  0
 24 23  1  0
 25  1  1  0
 25 23  1  0
 26  1  1  0
 27 14  1  0
 12 27  1  1
 28 14  1  0
 29 28  1  0
 30 29  1  0
 31 30  1  0
 31 13  1  0
 31 14  1  0
 32 13  1  0
 32 12  1  0
M  END
$$$$
8VV1
     RDKit          3D

 33 38  0  0  0  0  0  0  0  0999 V2000
    1.7390  -33.5700   26.8750 C   0  0  0  0  0  0  0  0  0  0  0  0
    0.3670  -33.7650   26.2180 C   0  0  2  0  0  0  0  0  0  0  0  0
    0.0830  -35.2750   26.1830 C   0  0  0  0  0  0  0  0  0  0  0  0
    0.4080  -33.2920   24.9600 F   0  0  0  0  0  0  0  0  0  0  0  0
   -0.7440  -33.0430   27.0450 C   0  0  0  0  0  0  0  0  0  0  0  0
   -0.8580  -31.6390   26.7130 N   0  0  0  0  0  0  0  0  0  0  0  0
   -0.1020  -30.8640   27.6550 C   0  0  2  0  0  0  0  0  0  0  0  0
   -0.6720  -30.9360   29.0750 C   0  0  0  0  0  0  0  0  0  0  0  0
    0.0760  -29.4360   27.1820 C   0  0  0  0  0  0  0  0  0  0  0  0
   -1.3110  -28.9380   26.8680 C   0  0  0  0  0  0  0  0  0  0  0  0
   -1.8580  -27.5380   26.7460 C   0  0  0  0  0  0  0  0  0  0  0  0
   -1.2860  -26.2860   26.8810 C   0  0  0  0  0  0  0  0  0  0  0  0
   -2.0270  -25.1160   26.5440 C   0  0  0  0  0  0  0  0  0  0  0  0
   -3.4330  -25.2390   26.2530 C   0  0  0  0  0  0  0  0  0  0  0  0
   -3.9940  -26.5330   26.2620 C   0  0  0  0  0  0  0  0  0  0  0  0
   -3.1990  -27.6330   26.4390 C   0  0  0  0  0  0  0  0  0  0  0  0
   -3.4780  -28.9460   26.3720 N   0  0  0  0  0  0  0  0  0  0  0  0
   -2.4340  -29.7630   26.6090 C   0  0  0  0  0  0  0  0  0  0  0  0
   -2.2400  -31.2750   26.6450 C   0  0  1  0  0  0  0  0  0  0  0  0
   -2.7810  -31.8080   25.3250 C   0  0  0  0  0  0  0  0  0  0  0  0
   -2.1530  -31.3900   24.1470 C   0  0  0  0  0  0  0  0  0  0  0  0
   -2.6090  -31.8540   22.9070 C   0  0  0  0  0  0  0  0  0  0  0  0
   -3.8720  -32.6910   25.2630 C   0  0  0  0  0  0  0  0  0  0  0  0
   -4.3310  -33.1510   24.0130 C   0  0  0  0  0  0  0  0  0  0  0  0
   -3.7070  -32.7250   22.8270 C   0  0  0  0  0  0  0  0  0  0  0  0
   -4.1570  -33.2040   21.5430 O   0  0  0  0  0  0  0  0  0  0  0  0
   -4.8500  -32.2270   20.7350 C   0  0  1  0  0  0  0  0  0  0  0  0
   -5.5100  -32.8820   19.6140 C   0  0  0  0  0  0  0  0  0  0  0  0
   -3.9670  -31.3630   19.9760 C   0  0  0  0  0  0  0  0  0  0  0  0
   -4.8650  -31.7760   18.9300 N   0  0  1  0  0  0  0  0  0  0  0  0
   -4.1720  -32.1820   17.8320 C   0  0  0  0  0  0  0  0  0  0  0  0
   -5.1290  -32.7450   16.7640 C   0  0  0  0  0  0  0  0  0  0  0  0
   -5.4030  -31.6760   15.7000 C   0  0  0  0  0  0  0  0  0  0  0  0
  2  1  1  1
  3  2  1  0
  4  2  1  0
  5  2  1  0
  6  5  1  0
  7  6  1  0
  7  8  1  1
  9  7  1  0
 10  9  1  0
 11 10  1  0
 12 11  1  0
 13 12  1  0
 14 13  1  0
 15 14  1  0
 16 11  1  0
 16 15  1  0
 17 16  1  0
 18 17  1  0
 18 10  1  0
 19 18  1  0
 19  6  1  0
 19 20  1  6
 21 20  1  0
 22 21  1  0
 23 20  1  0
 24 23  1  0
 25 24  1  0
 25 22  1  0
 26 25  1  0
 27 26  1  1
 28 27  1  0
 29 27  1  0
 30 28  1  0
 30 29  1  0
 30 27  1  0
 30 31  1  1
 32 31  1  0
 33 32  1  0
M  CHG  1  30   1
M  END
$$$$
6CZN
     RDKit          3D

 58 58  0  0  0  0  0  0  0  0999 V2000
  -11.8250  -18.5340   48.3520 N   0  0  0  0  0  0  0  0  0  0  0  0
  -11.8350  -17.0940   48.5800 C   0  0  2  0  0  0  0  0  0  0  0  0
  -10.7890  -16.4090   47.7050 C   0  0  0  0  0  0  0  0  0  0  0  0
   -9.6310  -16.8260   47.6650 O   0  0  0  0  0  0  0  0  0  0  0  0
  -11.5920  -16.7850   50.0590 C   0  0  0  0  0  0  0  0  0  0  0  0
  -12.2280  -15.4890   50.5420 C   0  0  0  0  0  0  0  0  0  0  0  0
  -12.1990  -15.3840   52.0620 C   0  0  0  0  0  0  0  0  0  0  0  0
  -10.9870  -16.0880   52.6530 C   0  0  0  0  0  0  0  0  0  0  0  0
  -11.1050  -16.2680   54.1250 N   0  0  0  0  0  0  0  0  0  0  0  0
  -11.2100  -15.3580   47.0080 N   0  0  0  0  0  0  0  0  0  0  0  0
  -10.3740  -14.6900   46.0130 C   0  0  2  0  0  0  0  0  0  0  0  0
   -9.0620  -14.1480   46.5770 C   0  0  0  0  0  0  0  0  0  0  0  0
   -8.0180  -14.2450   45.9320 O   0  0  0  0  0  0  0  0  0  0  0  0
  -11.1310  -13.5220   45.3480 C   0  0  0  0  0  0  0  0  0  0  0  0
   -9.1210  -13.5840   47.7790 N   0  0  0  0  0  0  0  0  0  0  0  0
   -7.9660  -12.9230   48.3810 C   0  0  2  0  0  0  0  0  0  0  0  0
   -6.7850  -13.8720   48.5840 C   0  0  0  0  0  0  0  0  0  0  0  0
   -5.6310  -13.4430   48.5970 O   0  0  0  0  0  0  0  0  0  0  0  0
   -8.3600  -12.2890   49.7170 C   0  0  0  0  0  0  0  0  0  0  0  0
   -7.5860  -11.0300   50.1100 C   0  0  0  0  0  0  0  0  0  0  0  0
   -7.7490   -9.9620   49.0450 C   0  0  0  0  0  0  0  0  0  0  0  0
   -8.0470  -10.5110   51.4620 C   0  0  0  0  0  0  0  0  0  0  0  0
   -7.0800  -15.1600   48.7380 N   0  0  0  0  0  0  0  0  0  0  0  0
   -6.0460  -16.1720   48.9300 C   0  0  2  0  0  0  0  0  0  0  0  0
   -5.1410  -16.3140   47.7100 C   0  0  0  0  0  0  0  0  0  0  0  0
   -3.9160  -16.2870   47.8290 O   0  0  0  0  0  0  0  0  0  0  0  0
   -6.6810  -17.5260   49.2580 C   0  0  0  0  0  0  0  0  0  0  0  0
   -6.6310  -17.8840   50.7100 C   0  0  0  0  0  0  0  0  0  0  0  0
   -5.5080  -18.4180   51.3050 N   0  0  0  0  0  0  0  0  0  0  0  0
   -7.5650  -17.7900   51.6860 C   0  0  0  0  0  0  0  0  0  0  0  0
   -5.7520  -18.6360   52.5850 C   0  0  0  0  0  0  0  0  0  0  0  0
   -6.9920  -18.2630   52.8420 N   0  0  0  0  0  0  0  0  0  0  0  0
   -5.7530  -16.4650   46.5400 N   0  0  0  0  0  0  0  0  0  0  0  0
   -5.0120  -16.7020   45.3050 C   0  0  2  0  0  0  0  0  0  0  0  0
   -4.1370  -15.5150   44.9130 C   0  0  0  0  0  0  0  0  0  0  0  0
   -2.9530  -15.6800   44.6160 O   0  0  0  0  0  0  0  0  0  0  0  0
   -5.9770  -17.0310   44.1640 C   0  0  0  0  0  0  0  0  0  0  0  0
   -4.7270  -14.3230   44.9150 N   0  0  0  0  0  0  0  0  0  0  0  0
   -4.0310  -13.1080   44.4980 C   0  0  2  0  0  0  0  0  0  0  0  0
   -2.7980  -12.8270   45.3540 C   0  0  0  0  0  0  0  0  0  0  0  0
   -1.7700  -12.3800   44.8460 O   0  0  0  0  0  0  0  0  0  0  0  0
   -4.9790  -11.9050   44.5410 C   0  0  0  0  0  0  0  0  0  0  0  0
   -5.9450  -11.6880   43.3700 C   0  0  0  0  0  0  0  0  0  0  0  0
   -6.9890  -12.7910   43.2670 C   0  0  0  0  0  0  0  0  0  0  0  0
   -6.6160  -10.3270   43.4820 C   0  0  0  0  0  0  0  0  0  0  0  0
   -2.9070  -13.0930   46.6520 N   0  0  0  0  0  0  0  0  0  0  0  0
   -1.7940  -12.8950   47.5740 C   0  0  2  0  0  0  0  0  0  0  0  0
   -0.6390  -13.8450   47.2740 C   0  0  0  0  0  0  0  0  0  0  0  0
    0.5170  -13.5480   47.5780 O   0  0  0  0  0  0  0  0  0  0  0  0
   -2.2590  -13.0760   49.0200 C   0  0  0  0  0  0  0  0  0  0  0  0
   -2.8270  -11.8370   49.7140 C   0  0  0  0  0  0  0  0  0  0  0  0
   -3.6100  -12.2270   50.9550 C   0  0  0  0  0  0  0  0  0  0  0  0
   -1.7050  -10.8780   50.0740 C   0  0  0  0  0  0  0  0  0  0  0  0
   -0.9580  -14.9890   46.6770 N   0  0  0  0  0  0  0  0  0  0  0  0
    0.0550  -15.9760   46.3230 C   0  0  2  0  0  0  0  0  0  0  0  0
    0.4800  -15.8260   44.8650 C   0  0  0  0  0  0  0  0  0  0  0  0
   -0.1060  -15.0450   44.1150 O   0  0  0  0  0  0  0  0  0  0  0  0
   -0.4640  -17.3920   46.5780 C   0  0  0  0  0  0  0  0  0  0  0  0
  2  1  1  1
  3  2  1  0
  4  3  2  0
  5  2  1  0
  6  5  1  0
  7  6  1  0
  8  7  1  0
  9  8  1  0
 10  3  1  0
 11 10  1  0
 12 11  1  0
 13 12  2  0
 11 14  1  1
 15 12  1  0
 16 15  1  0
 17 16  1  0
 18 17  2  0
 16 19  1  1
 20 19  1  0
 21 20  1  0
 22 20  1  0
 23 17  1  0
 24 23  1  0
 25 24  1  0
 26 25  2  0
 24 27  1  6
 28 27  1  0
 29 28  1  0
 30 28  2  0
 31 29  2  0
 32 31  1  0
 32 30  1  0
 33 25  1  0
 34 33  1  0
 35 34  1  0
 36 35  2  0
 34 37  1  6
 38 35  1  0
 39 38  1  0
 40 39  1  0
 41 40  2  0
 39 42  1  1
 43 42  1  0
 44 43  1  0
 45 43  1  0
 46 40  1  0
 47 46  1  0
 48 47  1  0
 49 48  2  0
 47 50  1  1
 51 50  1  0
 52 51  1  0
 53 51  1  0
 54 48  1  0
 55 54  1  0
 56 55  1  0
 57 56  2  0
 55 58  1  6
M  END
$$$$
6V8T
     RDKit          3D

 65 64  0  0  0  0  0  0  0  0999 V2000
   82.5830   -6.2240  112.4070 N   0  0  0  0  0  0  0  0  0  0  0  0
   82.9350   -5.1590  111.4760 C   0  0  2  0  0  0  0  0  0  0  0  0
   83.2200   -5.7240  110.0880 C   0  0  0  0  0  0  0  0  0  0  0  0
   83.3210   -4.9830  109.1100 O   0  0  0  0  0  0  0  0  0  0  0  0
   84.1410   -4.3740  111.9920 C   0  0  0  0  0  0  0  0  0  0  0  0
   83.8450   -3.7480  113.2280 O   0  0  0  0  0  0  0  0  0  0  0  0
   83.3590   -7.0440  110.0160 N   0  0  0  0  0  0  0  0  0  0  0  0
   83.4470   -7.7400  108.7400 C   0  0  2  0  0  0  0  0  0  0  0  0
   82.0710   -8.2960  108.4090 C   0  0  0  0  0  0  0  0  0  0  0  0
   81.8850   -8.9910  107.4110 O   0  0  0  0  0  0  0  0  0  0  0  0
   84.4900   -8.8580  108.7890 C   0  0  0  0  0  0  0  0  0  0  0  0
   81.1120   -7.9870  109.2760 N   0  0  0  0  0  0  0  0  0  0  0  0
   79.7190   -8.3530  109.0690 C   0  0  2  0  0  0  0  0  0  0  0  0
   79.0370   -7.3090  108.1940 C   0  0  0  0  0  0  0  0  0  0  0  0
   77.8960   -7.4850  107.7660 O   0  0  0  0  0  0  0  0  0  0  0  0
   78.9910   -8.4870  110.4080 C   0  0  0  0  0  0  0  0  0  0  0  0
   79.7510   -6.2170  107.9400 N   0  0  0  0  0  0  0  0  0  0  0  0
   79.2480   -5.1380  107.0980 C   0  0  2  0  0  0  0  0  0  0  0  0
   79.0240   -5.5960  105.6630 C   0  0  0  0  0  0  0  0  0  0  0  0
   78.1130   -5.1180  104.9880 O   0  0  0  0  0  0  0  0  0  0  0  0
   80.2140   -3.9530  107.1200 C   0  0  0  0  0  0  0  0  0  0  0  0
   79.9980   -2.9320  108.2350 C   0  0  0  0  0  0  0  0  0  0  0  0
   81.1440   -1.9470  108.2680 C   0  0  0  0  0  0  0  0  0  0  0  0
   78.6830   -2.2050  108.0330 C   0  0  0  0  0  0  0  0  0  0  0  0
   79.8610   -6.5190  105.1980 N   0  0  0  0  0  0  0  0  0  0  0  0
   79.7350   -7.0320  103.8410 C   0  0  2  0  0  0  0  0  0  0  0  0
   78.5150   -7.9390  103.7230 C   0  0  0  0  0  0  0  0  0  0  0  0
   77.8780   -7.9950  102.6740 O   0  0  0  0  0  0  0  0  0  0  0  0
   81.0100   -7.7730  103.4180 C   0  0  0  0  0  0  0  0  0  0  0  0
   81.6280   -8.8190  104.3520 C   0  0  0  0  0  0  0  0  0  0  0  0
   81.0030  -10.1920  104.1530 C   0  0  0  0  0  0  0  0  0  0  0  0
   83.1370   -8.8850  104.1640 C   0  0  0  0  0  0  0  0  0  0  0  0
   78.1930   -8.6370  104.8090 N   0  0  0  0  0  0  0  0  0  0  0  0
   77.0220   -9.5080  104.8490 C   0  0  2  0  0  0  0  0  0  0  0  0
   75.7460   -8.7120  104.6160 C   0  0  0  0  0  0  0  0  0  0  0  0
   74.8910   -9.1020  103.8210 O   0  0  0  0  0  0  0  0  0  0  0  0
   76.9320  -10.2340  106.1920 C   0  0  0  0  0  0  0  0  0  0  0  0
   78.2170  -10.8980  106.6440 C   0  0  0  0  0  0  0  0  0  0  0  0
   78.0940  -11.4960  108.0310 C   0  0  0  0  0  0  0  0  0  0  0  0
   76.9800  -11.4640  108.5970 O   0  0  0  0  0  0  0  0  0  0  0  0
   79.1100  -11.9940  108.5590 O   0  0  0  0  0  0  0  0  0  0  0  0
   75.6300   -7.5900  105.3200 N   0  0  0  0  0  0  0  0  0  0  0  0
   74.4560   -6.7320  105.2290 C   0  0  2  0  0  0  0  0  0  0  0  0
   74.3620   -6.0670  103.8590 C   0  0  0  0  0  0  0  0  0  0  0  0
   73.2950   -5.6050  103.4540 O   0  0  0  0  0  0  0  0  0  0  0  0
   74.4880   -5.6700  106.3320 C   0  0  0  0  0  0  0  0  0  0  0  0
   74.7210   -6.2320  107.7270 C   0  0  0  0  0  0  0  0  0  0  0  0
   74.6750   -4.9680  109.0140 S   0  0  0  0  0  0  0  0  0  0  0  0
   75.0710   -5.9430  110.4630 C   0  0  0  0  0  0  0  0  0  0  0  0
   75.4850   -6.0270  103.1500 N   0  0  0  0  0  0  0  0  0  0  0  0
   75.5430   -5.4110  101.8290 C   0  0  2  0  0  0  0  0  0  0  0  0
   75.5590   -6.4520  100.7110 C   0  0  0  0  0  0  0  0  0  0  0  0
   75.2950   -6.1290   99.5530 O   0  0  0  0  0  0  0  0  0  0  0  0
   76.7740   -4.5090  101.7210 C   0  0  0  0  0  0  0  0  0  0  0  0
   76.7570   -3.2140  102.5360 C   0  0  0  0  0  0  0  0  0  0  0  0
   78.1660   -2.6710  102.7010 C   0  0  0  0  0  0  0  0  0  0  0  0
   75.8600   -2.1800  101.8720 C   0  0  0  0  0  0  0  0  0  0  0  0
   75.8740   -7.6970  101.0580 N   0  0  0  0  0  0  0  0  0  0  0  0
   75.9040   -8.7770  100.0740 C   0  0  2  0  0  0  0  0  0  0  0  0
   74.5000   -9.1390   99.6030 C   0  0  0  0  0  0  0  0  0  0  0  0
   73.5390   -9.0620  100.3670 O   0  0  0  0  0  0  0  0  0  0  0  0
   76.5970  -10.0160  100.6480 C   0  0  0  0  0  0  0  0  0  0  0  0
   78.0290  -10.1580  100.1680 C   0  0  0  0  0  0  0  0  0  0  0  0
   78.6170   -9.1450   99.7360 O   0  0  0  0  0  0  0  0  0  0  0  0
   78.5670  -11.2850  100.2240 O   0  0  0  0  0  0  0  0  0  0  0  0
  2  1  1  1
  3  2  1  0
  4  3  2  0
  5  2  1  0
  6  5  1  0
  7  3  1  0
  8  7  1  0
  9  8  1  0
 10  9  2  0
  8 11  1  1
 12  9  1  0
 13 12  1  0
 14 13  1  0
 15 14  2  0
 13 16  1  1
 17 14  1  0
 18 17  1  0
 19 18  1  0
 20 19  2  0
 18 21  1  6
 22 21  1  0
 23 22  1  0
 24 22  1  0
 25 19  1  0
 26 25  1  0
 27 26  1  0
 28 27  2  0
 26 29  1  1
 30 29  1  0
 31 30  1  0
 32 30  1  0
 33 27  1  0
 34 33  1  0
 35 34  1  0
 36 35  2  0
 34 37  1  1
 38 37  1  0
 39 38  1  0
 40 39  2  0
 41 39  1  0
 42 35  1  0
 43 42  1  0
 44 43  1  0
 45 44  2  0
 43 46  1  1
 47 46  1  0
 48 47  1  0
 49 48  1  0
 50 44  1  0
 51 50  1  0
 52 51  1  0
 53 52  2  0
 51 54  1  1
 55 54  1  0
 56 55  1  0
 57 55  1  0
 58 52  1  0
 59 58  1  0
 60 59  1  0
 61 60  2  0
 59 62  1  1
 63 62  1  0
 64 63  2  0
 65 63  1  0
M  END
$$$$
6V87
     RDKit          3D

 75 74  0  0  0  0  0  0  0  0999 V2000
   16.7670  -36.4060   21.6820 N   0  0  0  0  0  0  0  0  0  0  0  0
   15.4440  -36.0560   22.1850 C   0  0  2  0  0  0  0  0  0  0  0  0
   15.3860  -36.1860   23.7030 C   0  0  0  0  0  0  0  0  0  0  0  0
   16.4180  -36.1420   24.3740 O   0  0  0  0  0  0  0  0  0  0  0  0
   14.3750  -36.9390   21.5360 C   0  0  0  0  0  0  0  0  0  0  0  0
   14.1760  -36.3480   24.2370 N   0  0  0  0  0  0  0  0  0  0  0  0
   13.9660  -36.5760   25.6680 C   0  0  2  0  0  0  0  0  0  0  0  0
   14.7370  -37.8130   26.1150 C   0  0  0  0  0  0  0  0  0  0  0  0
   15.0560  -37.9740   27.2960 O   0  0  0  0  0  0  0  0  0  0  0  0
   12.4760  -36.7380   25.9730 C   0  0  0  0  0  0  0  0  0  0  0  0
   11.6940  -35.9040   25.1320 O   0  0  0  0  0  0  0  0  0  0  0  0
   15.0030  -38.6810   25.1430 N   0  0  0  0  0  0  0  0  0  0  0  0
   15.9000  -39.8140   25.2700 C   0  0  2  0  0  0  0  0  0  0  0  0
   17.3350  -39.4180   25.5700 C   0  0  0  0  0  0  0  0  0  0  0  0
   17.7890  -39.4200   26.7150 O   0  0  0  0  0  0  0  0  0  0  0  0
   15.8950  -40.6150   23.9650 C   0  0  0  0  0  0  0  0  0  0  0  0
   16.6090  -41.9370   24.0830 C   0  0  0  0  0  0  0  0  0  0  0  0
   17.5550  -42.0360   24.8910 O   0  0  0  0  0  0  0  0  0  0  0  0
   16.2260  -42.8720   23.3440 O   0  0  0  0  0  0  0  0  0  0  0  0
   18.0270  -39.0920   24.4840 N   0  0  0  0  0  0  0  0  0  0  0  0
   19.4780  -39.0050   24.4260 C   0  0  2  0  0  0  0  0  0  0  0  0
   20.0590  -38.0190   25.4290 C   0  0  0  0  0  0  0  0  0  0  0  0
   21.1470  -38.2330   25.9500 O   0  0  0  0  0  0  0  0  0  0  0  0
   19.8870  -38.6310   23.0000 C   0  0  0  0  0  0  0  0  0  0  0  0
   21.3000  -38.8870   22.4840 C   0  0  0  0  0  0  0  0  0  0  0  0
   21.5670  -40.3750   22.4350 C   0  0  0  0  0  0  0  0  0  0  0  0
   21.4170  -38.2970   21.0910 C   0  0  0  0  0  0  0  0  0  0  0  0
   19.3240  -36.9470   25.7010 N   0  0  0  0  0  0  0  0  0  0  0  0
   19.7520  -35.9630   26.6880 C   0  0  2  0  0  0  0  0  0  0  0  0
   19.9310  -36.6120   28.0590 C   0  0  0  0  0  0  0  0  0  0  0  0
   20.9800  -36.4700   28.6810 O   0  0  0  0  0  0  0  0  0  0  0  0
   18.7530  -34.8070   26.7620 C   0  0  0  0  0  0  0  0  0  0  0  0
   18.7520  -33.8880   25.5380 C   0  0  0  0  0  0  0  0  0  0  0  0
   17.4150  -33.1810   25.3940 C   0  0  0  0  0  0  0  0  0  0  0  0
   19.8910  -32.8820   25.6210 C   0  0  0  0  0  0  0  0  0  0  0  0
   18.9170  -37.3440   28.5140 N   0  0  0  0  0  0  0  0  0  0  0  0
   18.9930  -38.0440   29.7950 C   0  0  2  0  0  0  0  0  0  0  0  0
   20.1750  -39.0140   29.8310 C   0  0  0  0  0  0  0  0  0  0  0  0
   20.7750  -39.2350   30.8830 O   0  0  0  0  0  0  0  0  0  0  0  0
   17.6890  -38.7910   30.0780 C   0  0  0  0  0  0  0  0  0  0  0  0
   20.5030  -39.5840   28.6740 N   0  0  0  0  0  0  0  0  0  0  0  0
   21.6850  -40.4290   28.5390 C   0  0  2  0  0  0  0  0  0  0  0  0
   22.9640  -39.6380   28.8230 C   0  0  0  0  0  0  0  0  0  0  0  0
   23.7640  -40.0210   29.6760 O   0  0  0  0  0  0  0  0  0  0  0  0
   21.7600  -41.0380   27.1360 C   0  0  0  0  0  0  0  0  0  0  0  0
   20.6860  -42.0610   26.8050 C   0  0  0  0  0  0  0  0  0  0  0  0
   20.8780  -42.6460   25.4190 C   0  0  0  0  0  0  0  0  0  0  0  0
   22.0440  -42.7520   24.9840 O   0  0  0  0  0  0  0  0  0  0  0  0
   19.8720  -42.9890   24.7620 O   0  0  0  0  0  0  0  0  0  0  0  0
   23.1450  -38.5340   28.1010 N   0  0  0  0  0  0  0  0  0  0  0  0
   24.3400  -37.6980   28.2170 C   0  0  2  0  0  0  0  0  0  0  0  0
   24.5490  -37.0850   29.6000 C   0  0  0  0  0  0  0  0  0  0  0  0
   25.6860  -36.8780   30.0210 O   0  0  0  0  0  0  0  0  0  0  0  0
   24.2950  -36.5730   27.1740 C   0  0  0  0  0  0  0  0  0  0  0  0
   23.9200  -37.0260   25.7760 C   0  0  0  0  0  0  0  0  0  0  0  0
   24.1340  -35.7410   24.5280 S   0  0  0  0  0  0  0  0  0  0  0  0
   24.2710  -36.7190   23.0360 C   0  0  0  0  0  0  0  0  0  0  0  0
   23.4610  -36.7910   30.3030 N   0  0  0  0  0  0  0  0  0  0  0  0
   23.5660  -36.0830   31.5740 C   0  0  2  0  0  0  0  0  0  0  0  0
   23.7800  -37.0260   32.7520 C   0  0  0  0  0  0  0  0  0  0  0  0
   23.7920  -36.5980   33.9060 O   0  0  0  0  0  0  0  0  0  0  0  0
   22.3230  -35.2230   31.8090 C   0  0  0  0  0  0  0  0  0  0  0  0
   22.4250  -33.8190   31.2040 C   0  0  0  0  0  0  0  0  0  0  0  0
   21.7730  -33.7540   29.8380 C   0  0  0  0  0  0  0  0  0  0  0  0
   21.8300  -32.7790   32.1250 C   0  0  0  0  0  0  0  0  0  0  0  0
   23.9670  -38.3070   32.4530 N   0  0  0  0  0  0  0  0  0  0  0  0
   24.2120  -39.3050   33.4850 C   0  0  2  0  0  0  0  0  0  0  0  0
   25.6680  -39.2880   33.9460 C   0  0  0  0  0  0  0  0  0  0  0  0
   26.0400  -39.9920   34.8870 O   0  0  0  0  0  0  0  0  0  0  0  0
   23.8420  -40.6980   32.9730 C   0  0  0  0  0  0  0  0  0  0  0  0
   26.4780  -38.4690   33.2810 N   0  0  0  0  0  0  0  0  0  0  0  0
   27.9220  -38.4300   33.5070 C   0  0  2  0  0  0  0  0  0  0  0  0
   28.2940  -37.9980   34.9250 C   0  0  0  0  0  0  0  0  0  0  0  0
   27.4290  -37.6640   35.7340 O   0  0  0  0  0  0  0  0  0  0  0  0
   28.5800  -37.5040   32.4920 C   0  0  0  0  0  0  0  0  0  0  0  0
  2  1  1  0
  3  2  1  0
  4  3  2  0
  2  5  1  6
  6  3  1  0
  7  6  1  0
  8  7  1  0
  9  8  2  0
  7 10  1  6
 11 10  1  0
 12  8  1  0
 13 12  1  0
 14 13  1  0
 15 14  2  0
 13 16  1  6
 17 16  1  0
 18 17  2  0
 19 17  1  0
 20 14  1  0
 21 20  1  0
 22 21  1  0
 23 22  2  0
 21 24  1  6
 25 24  1  0
 26 25  1  0
 27 25  1  0
 28 22  1  0
 29 28  1  0
 30 29  1  0
 31 30  2  0
 29 32  1  1
 33 32  1  0
 34 33  1  0
 35 33  1  0
 36 30  1  0
 37 36  1  0
 38 37  1  0
 39 38  2  0
 37 40  1  6
 41 38  1  0
 42 41  1  0
 43 42  1  0
 44 43  2  0
 42 45  1  6
 46 45  1  0
 47 46  1  0
 48 47  2  0
 49 47  1  0
 50 43  1  0
 51 50  1  0
 52 51  1  0
 53 52  2  0
 51 54  1  6
 55 54  1  0
 56 55  1  0
 57 56  1  0
 58 52  1  0
 59 58  1  0
 60 59  1  0
 61 60  2  0
 59 62  1  1
 63 62  1  0
 64 63  1  0
 65 63  1  0
 66 60  1  0
 67 66  1  0
 68 67  1  0
 69 68  2  0
 67 70  1  6
 71 68  1  0
 72 71  1  0
 73 72  1  0
 74 73  2  0
 72 75  1  6
M  END
$$$$
7BA8
     RDKit          3D

 42 43  0  0  0  0  0  0  0  0999 V2000
   12.5590    7.9400   14.6090 N   0  0  0  0  0  0  0  0  0  0  0  0
   13.5270    9.0370   14.5870 C   0  0  2  0  0  0  0  0  0  0  0  0
   12.9230   10.2590   13.9040 C   0  0  0  0  0  0  0  0  0  0  0  0
   12.0470   10.1420   13.0390 O   0  0  0  0  0  0  0  0  0  0  0  0
   14.8240    8.6150   13.8780 C   0  0  0  0  0  0  0  0  0  0  0  0
   14.6180    8.0760   12.4930 C   0  0  0  0  0  0  0  0  0  0  0  0
   14.6250    8.9250   11.3900 C   0  0  0  0  0  0  0  0  0  0  0  0
   14.4360    6.7120   12.2830 C   0  0  0  0  0  0  0  0  0  0  0  0
   14.4280    8.4230   10.1070 C   0  0  0  0  0  0  0  0  0  0  0  0
   14.2430    6.2030   10.9990 C   0  0  0  0  0  0  0  0  0  0  0  0
   14.2460    7.0590    9.9120 C   0  0  0  0  0  0  0  0  0  0  0  0
   13.3880   11.4400   14.2810 N   0  0  0  0  0  0  0  0  0  0  0  0
   12.8100   12.6640   13.7260 C   0  0  2  0  0  0  0  0  0  0  0  0
   13.4020   13.0050   12.3650 C   0  0  0  0  0  0  0  0  0  0  0  0
   14.4680   12.5420   11.9730 O   0  0  0  0  0  0  0  0  0  0  0  0
   13.1910   13.6950   14.7820 C   0  0  0  0  0  0  0  0  0  0  0  0
   14.5610   13.2390   15.2560 C   0  0  0  0  0  0  0  0  0  0  0  0
   14.3800   11.7260   15.3400 C   0  0  0  0  0  0  0  0  0  0  0  0
   12.6720   13.8400   11.6240 N   0  0  0  0  0  0  0  0  0  0  0  0
   13.0420   14.2260   10.2800 C   0  0  2  0  0  0  0  0  0  0  0  0
   14.1820   15.2570   10.2560 C   0  0  0  0  0  0  0  0  0  0  0  0
   14.1390   16.2260   11.0440 O   0  0  0  0  0  0  0  0  0  0  0  0
   11.8460   14.8340    9.5920 C   0  0  0  0  0  0  0  0  0  0  0  0
   15.1910   15.0240    9.4170 N   0  0  0  0  0  0  0  0  0  0  0  0
   16.2510   15.9760    9.1260 C   0  0  1  0  0  0  0  0  0  0  0  0
   17.5680   15.6520    9.8820 C   0  0  1  0  0  0  0  0  0  0  0  0
   17.4240   15.7860   11.3980 C   0  0  0  0  0  0  0  0  0  0  0  0
   17.8710   14.2890    9.4870 O   0  0  0  0  0  0  0  0  0  0  0  0
   19.2910   13.6210    9.9020 P   0  0  0  0  0  0  0  0  0  0  0  0
   19.3320   12.3690    8.9690 O   0  0  0  0  0  0  0  0  0  0  0  0
   19.3300   13.2600   11.3330 O   0  0  0  0  0  0  0  0  0  0  0  0
   20.3800   14.6260    9.5660 O   0  0  0  0  0  0  0  0  0  0  0  0
   16.4910   15.9690    7.6330 C   0  0  1  0  0  0  0  0  0  0  0  0
   16.1080   14.9760    6.9480 O   0  0  0  0  0  0  0  0  0  0  0  0
   17.0320   17.0290    7.0810 N   0  0  0  0  0  0  0  0  0  0  0  0
   17.3290   17.1080    5.6520 C   0  0  2  0  0  0  0  0  0  0  0  0
   18.7530   17.4750    5.3980 C   0  0  0  0  0  0  0  0  0  0  0  0
   19.5250   17.9100    6.2570 O   0  0  0  0  0  0  0  0  0  0  0  0
   16.4360   18.1490    4.9210 C   0  0  0  0  0  0  0  0  0  0  0  0
   15.0280   17.7840    5.0410 C   0  0  0  0  0  0  0  0  0  0  0  0
   16.7060   19.5780    5.4670 C   0  0  0  0  0  0  0  0  0  0  0  0
   19.1800   17.3130    4.2320 O   0  0  0  0  0  0  0  0  0  0  0  0
  2  1  1  6
  3  2  1  0
  4  3  2  0
  5  2  1  0
  6  5  1  0
  7  6  2  0
  8  6  1  0
  9  7  1  0
 10  8  2  0
 11  9  2  0
 11 10  1  0
 12  3  1  0
 13 12  1  0
 13 14  1  6
 15 14  2  0
 16 13  1  0
 17 16  1  0
 18 17  1  0
 18 12  1  0
 19 14  1  0
 20 19  1  0
 21 20  1  0
 22 21  2  0
 20 23  1  1
 24 21  1  0
 25 24  1  6
 26 25  1  0
 26 27  1  1
 28 26  1  0
 29 28  1  0
 30 29  1  0
 31 29  1  0
 32 29  1  0
 33 25  1  0
 33 34  1  6
 35 33  1  0
 36 35  1  1
 37 36  1  0
 38 37  2  0
 39 36  1  0
 40 39  1  0
 41 39  1  0
 42 37  1  0
M  END
$$$$
5DUH
     RDKit          3D

 79 79  0  0  0  0  0  0  0  0999 V2000
    2.5000  -18.7170   -9.5190 N   0  0  0  0  0  0  0  0  0  0  0  0
    2.4340  -17.2610   -9.5940 C   0  0  2  0  0  0  0  0  0  0  0  0
    3.5190  -16.6980  -10.5070 C   0  0  0  0  0  0  0  0  0  0  0  0
    4.5760  -17.3060  -10.6810 O   0  0  0  0  0  0  0  0  0  0  0  0
    2.5410  -16.6420   -8.1970 C   0  0  0  0  0  0  0  0  0  0  0  0
    1.3330  -16.9050   -7.3090 C   0  0  0  0  0  0  0  0  0  0  0  0
    1.4560  -16.1950   -5.9670 C   0  0  0  0  0  0  0  0  0  0  0  0
    2.6180  -16.7430   -5.1500 C   0  0  0  0  0  0  0  0  0  0  0  0
    2.6750  -16.1400   -3.7880 N   0  0  0  0  0  0  0  0  0  0  0  0
    3.2490  -15.5340  -11.0890 N   0  0  0  0  0  0  0  0  0  0  0  0
    4.1940  -14.8890  -11.9910 C   0  0  2  0  0  0  0  0  0  0  0  0
    5.5240  -14.6320  -11.2980 C   0  0  0  0  0  0  0  0  0  0  0  0
    6.5910  -14.8750  -11.8640 O   0  0  0  0  0  0  0  0  0  0  0  0
    3.6530  -13.5520  -12.5090 C   0  0  2  0  0  0  0  0  0  0  0  0
    2.3060  -13.7560  -13.2020 C   0  0  0  0  0  0  0  0  0  0  0  0
    4.6540  -12.9050  -13.4510 C   0  0  0  0  0  0  0  0  0  0  0  0
    1.6800  -12.4690  -13.6940 C   0  0  0  0  0  0  0  0  0  0  0  0
    5.4510  -14.1350  -10.0680 N   0  0  0  0  0  0  0  0  0  0  0  0
    6.6470  -13.8430   -9.2910 C   0  0  2  0  0  0  0  0  0  0  0  0
    7.5130  -15.0900   -9.2040 C   0  0  0  0  0  0  0  0  0  0  0  0
    8.7240  -15.0310   -9.4010 O   0  0  0  0  0  0  0  0  0  0  0  0
    6.2700  -13.3520   -7.8920 C   0  0  0  0  0  0  0  0  0  0  0  0
    7.3950  -12.8190   -7.0030 C   0  0  0  0  0  0  0  0  0  0  0  0
    8.2400  -11.7970   -7.7410 C   0  0  0  0  0  0  0  0  0  0  0  0
    6.8170  -12.2110   -5.7420 C   0  0  0  0  0  0  0  0  0  0  0  0
    6.8760  -16.2220   -8.9250 N   0  0  0  0  0  0  0  0  0  0  0  0
    7.5820  -17.4900   -8.8250 C   0  0  2  0  0  0  0  0  0  0  0  0
    8.3660  -17.7730  -10.1040 C   0  0  0  0  0  0  0  0  0  0  0  0
    9.5370  -18.1510  -10.0550 O   0  0  0  0  0  0  0  0  0  0  0  0
    6.5950  -18.6250   -8.5510 C   0  0  0  0  0  0  0  0  0  0  0  0
    7.1840  -19.7640   -7.7810 C   0  0  0  0  0  0  0  0  0  0  0  0
    6.6710  -21.0420   -7.8320 N   0  0  0  0  0  0  0  0  0  0  0  0
    8.2400  -19.8160   -6.9350 C   0  0  0  0  0  0  0  0  0  0  0  0
    7.3870  -21.8330   -7.0530 C   0  0  0  0  0  0  0  0  0  0  0  0
    8.3450  -21.1140   -6.4970 N   0  0  0  0  0  0  0  0  0  0  0  0
    7.7110  -17.5820  -11.2450 N   0  0  0  0  0  0  0  0  0  0  0  0
    8.3330  -17.8130  -12.5440 C   0  0  2  0  0  0  0  0  0  0  0  0
    9.5290  -16.8910  -12.7570 C   0  0  0  0  0  0  0  0  0  0  0  0
   10.5860  -17.3250  -13.2150 O   0  0  0  0  0  0  0  0  0  0  0  0
    7.3170  -17.6020  -13.6690 C   0  0  0  0  0  0  0  0  0  0  0  0
    7.8470  -17.9200  -15.0610 C   0  0  0  0  0  0  0  0  0  0  0  0
    7.3200  -16.9330  -16.0930 C   0  0  0  0  0  0  0  0  0  0  0  0
    5.8660  -16.8080  -16.0440 N   0  0  0  0  0  0  0  0  0  0  0  0
    5.1940  -15.7370  -16.4530 C   0  0  0  0  0  0  0  0  0  0  0  0
    5.8450  -14.6890  -16.9410 N   0  0  0  0  0  0  0  0  0  0  0  0
    3.8700  -15.7100  -16.3700 N   0  0  0  0  0  0  0  0  0  0  0  0
    9.3540  -15.6160  -12.4220 N   0  0  0  0  0  0  0  0  0  0  0  0
   10.4050  -14.6200  -12.6080 C   0  0  2  0  0  0  0  0  0  0  0  0
   11.6190  -14.8910  -11.7250 C   0  0  0  0  0  0  0  0  0  0  0  0
   12.7520  -14.6230  -12.1210 O   0  0  0  0  0  0  0  0  0  0  0  0
    9.8660  -13.2080  -12.3610 C   0  0  0  0  0  0  0  0  0  0  0  0
    9.3430  -12.4600  -13.5920 C   0  0  0  0  0  0  0  0  0  0  0  0
    8.6460  -13.4000  -14.5640 C   0  0  0  0  0  0  0  0  0  0  0  0
    8.4210  -11.3200  -13.1880 C   0  0  0  0  0  0  0  0  0  0  0  0
   11.3830  -15.4210  -10.5300 N   0  0  0  0  0  0  0  0  0  0  0  0
   12.4830  -15.7580   -9.6350 C   0  0  2  0  0  0  0  0  0  0  0  0
   13.3220  -16.9010  -10.2010 C   0  0  0  0  0  0  0  0  0  0  0  0
   14.5290  -16.9610   -9.9760 O   0  0  0  0  0  0  0  0  0  0  0  0
   11.9750  -16.1120   -8.2350 C   0  0  0  0  0  0  0  0  0  0  0  0
   11.8730  -14.9740   -7.2160 C   0  0  0  0  0  0  0  0  0  0  0  0
   13.1810  -14.2010   -7.1300 C   0  0  0  0  0  0  0  0  0  0  0  0
   10.7300  -14.0440   -7.5530 C   0  0  0  0  0  0  0  0  0  0  0  0
   12.6800  -17.8020  -10.9380 N   0  0  0  0  0  0  0  0  0  0  0  0
   13.3890  -18.9160  -11.5600 C   0  0  2  0  0  0  0  0  0  0  0  0
   14.1810  -18.4670  -12.7870 C   0  0  0  0  0  0  0  0  0  0  0  0
   15.3840  -18.7090  -12.8820 O   0  0  0  0  0  0  0  0  0  0  0  0
   12.4220  -20.0400  -11.9400 C   0  0  0  0  0  0  0  0  0  0  0  0
   11.7080  -20.6790  -10.7590 C   0  0  0  0  0  0  0  0  0  0  0  0
   11.2370  -22.0890  -11.0610 C   0  0  0  0  0  0  0  0  0  0  0  0
   11.8460  -22.8000  -11.8600 O   0  0  0  0  0  0  0  0  0  0  0  0
   10.1480  -22.5000  -10.4220 N   0  0  0  0  0  0  0  0  0  0  0  0
   13.5010  -17.8120  -13.7230 N   0  0  0  0  0  0  0  0  0  0  0  0
   14.1430  -17.3300  -14.9430 C   0  0  2  0  0  0  0  0  0  0  0  0
   14.5650  -15.8690  -14.8150 C   0  0  0  0  0  0  0  0  0  0  0  0
   15.2530  -15.4910  -13.8670 O   0  0  0  0  0  0  0  0  0  0  0  0
   13.2090  -17.5000  -16.1440 C   0  0  0  0  0  0  0  0  0  0  0  0
   12.8680  -18.9510  -16.4170 C   0  0  0  0  0  0  0  0  0  0  0  0
   11.6640  -19.2680  -16.5220 O   0  0  0  0  0  0  0  0  0  0  0  0
   13.8020  -19.7740  -16.5320 O   0  0  0  0  0  0  0  0  0  0  0  0
  2  1  1  1
  3  2  1  0
  4  3  2  0
  5  2  1  0
  6  5  1  0
  7  6  1  0
  8  7  1  0
  9  8  1  0
 10  3  1  0
 11 10  1  1
 12 11  1  0
 13 12  2  0
 14 11  1  0
 15 14  1  0
 14 16  1  6
 17 15  1  0
 18 12  1  0
 19 18  1  0
 20 19  1  0
 21 20  2  0
 19 22  1  1
 23 22  1  0
 24 23  1  0
 25 23  1  0
 26 20  1  0
 27 26  1  0
 28 27  1  0
 29 28  2  0
 27 30  1  6
 31 30  1  0
 32 31  1  0
 33 31  2  0
 34 32  2  0
 35 34  1  0
 35 33  1  0
 36 28  1  0
 37 36  1  0
 38 37  1  0
 39 38  2  0
 37 40  1  6
 41 40  1  0
 42 41  1  0
 43 42  1  0
 44 43  1  0
 45 44  1  0
 46 44  2  0
 47 38  1  0
 48 47  1  0
 49 48  1  0
 50 49  2  0
 48 51  1  1
 52 51  1  0
 53 52  1  0
 54 52  1  0
 55 49  1  0
 56 55  1  0
 57 56  1  0
 58 57  2  0
 56 59  1  1
 60 59  1  0
 61 60  1  0
 62 60  1  0
 63 57  1  0
 64 63  1  0
 65 64  1  0
 66 65  2  0
 64 67  1  6
 68 67  1  0
 69 68  1  0
 70 69  2  0
 71 69  1  0
 72 65  1  0
 73 72  1  0
 74 73  1  0
 75 74  2  0
 73 76  1  6
 77 76  1  0
 78 77  2  0
 79 77  1  0
M  END
$$$$
5DVS
     RDKit          3D

 79 79  0  0  0  0  0  0  0  0999 V2000
  -30.0300   -5.7350   -6.0610 N   0  0  0  0  0  0  0  0  0  0  0  0
  -29.2430   -6.9280   -5.7670 C   0  0  2  0  0  0  0  0  0  0  0  0
  -29.0710   -7.1510   -4.2690 C   0  0  0  0  0  0  0  0  0  0  0  0
  -28.9600   -6.1990   -3.4960 O   0  0  0  0  0  0  0  0  0  0  0  0
  -27.8660   -6.8390   -6.4270 C   0  0  0  0  0  0  0  0  0  0  0  0
  -27.8810   -6.9770   -7.9350 C   0  0  0  0  0  0  0  0  0  0  0  0
  -26.4680   -6.9420   -8.4900 C   0  0  0  0  0  0  0  0  0  0  0  0
  -26.4610   -7.1120   -9.9990 C   0  0  0  0  0  0  0  0  0  0  0  0
  -25.0780   -7.0680  -10.5470 N   0  0  0  0  0  0  0  0  0  0  0  0
  -29.0460   -8.4180   -3.8690 N   0  0  0  0  0  0  0  0  0  0  0  0
  -28.7610   -8.7820   -2.4880 C   0  0  2  0  0  0  0  0  0  0  0  0
  -27.2990   -8.4690   -2.1810 C   0  0  0  0  0  0  0  0  0  0  0  0
  -26.9470   -8.1160   -1.0550 O   0  0  0  0  0  0  0  0  0  0  0  0
  -29.0480  -10.2760   -2.2190 C   0  0  2  0  0  0  0  0  0  0  0  0
  -30.4560  -10.6470   -2.6930 C   0  0  0  0  0  0  0  0  0  0  0  0
  -28.8790  -10.6030   -0.7430 C   0  0  0  0  0  0  0  0  0  0  0  0
  -30.7840  -12.1190   -2.5410 C   0  0  0  0  0  0  0  0  0  0  0  0
  -26.4580   -8.5900   -3.2050 N   0  0  0  0  0  0  0  0  0  0  0  0
  -25.0280   -8.3290   -3.0790 C   0  0  2  0  0  0  0  0  0  0  0  0
  -24.7510   -6.8740   -2.7130 C   0  0  0  0  0  0  0  0  0  0  0  0
  -23.7970   -6.5790   -1.9930 O   0  0  0  0  0  0  0  0  0  0  0  0
  -24.3070   -8.6900   -4.3820 C   0  0  0  0  0  0  0  0  0  0  0  0
  -22.7790   -8.6260   -4.3690 C   0  0  0  0  0  0  0  0  0  0  0  0
  -22.2240   -9.4920   -3.2560 C   0  0  0  0  0  0  0  0  0  0  0  0
  -22.2130   -9.0600   -5.7110 C   0  0  0  0  0  0  0  0  0  0  0  0
  -25.5870   -5.9700   -3.2160 N   0  0  0  0  0  0  0  0  0  0  0  0
  -25.4770   -4.5560   -2.8800 C   0  0  2  0  0  0  0  0  0  0  0  0
  -25.6600   -4.3410   -1.3790 C   0  0  0  0  0  0  0  0  0  0  0  0
  -24.8590   -3.6610   -0.7380 O   0  0  0  0  0  0  0  0  0  0  0  0
  -26.5110   -3.7310   -3.6510 C   0  0  0  0  0  0  0  0  0  0  0  0
  -26.1900   -3.5450   -5.1010 C   0  0  0  0  0  0  0  0  0  0  0  0
  -24.9000   -3.4350   -5.5730 N   0  0  0  0  0  0  0  0  0  0  0  0
  -26.9960   -3.4380   -6.1850 C   0  0  0  0  0  0  0  0  0  0  0  0
  -24.9240   -3.2730   -6.8840 C   0  0  0  0  0  0  0  0  0  0  0  0
  -26.1850   -3.2720   -7.2800 N   0  0  0  0  0  0  0  0  0  0  0  0
  -26.7170   -4.9350   -0.8290 N   0  0  0  0  0  0  0  0  0  0  0  0
  -27.0470   -4.7860    0.5850 C   0  0  2  0  0  0  0  0  0  0  0  0
  -25.9660   -5.3710    1.4890 C   0  0  0  0  0  0  0  0  0  0  0  0
  -25.5980   -4.7730    2.4990 O   0  0  0  0  0  0  0  0  0  0  0  0
  -28.3920   -5.4530    0.8930 C   0  0  0  0  0  0  0  0  0  0  0  0
  -28.9530   -5.1060    2.2650 C   0  0  0  0  0  0  0  0  0  0  0  0
  -30.2110   -5.9010    2.5920 C   0  0  0  0  0  0  0  0  0  0  0  0
  -29.9100   -7.2450    3.0800 N   0  0  0  0  0  0  0  0  0  0  0  0
  -30.1430   -8.3610    2.3990 C   0  0  0  0  0  0  0  0  0  0  0  0
  -30.6910   -8.3030    1.1930 N   0  0  0  0  0  0  0  0  0  0  0  0
  -29.8350   -9.5390    2.9260 N   0  0  0  0  0  0  0  0  0  0  0  0
  -25.4640   -6.5450    1.1180 N   0  0  0  0  0  0  0  0  0  0  0  0
  -24.4560   -7.2350    1.9130 C   0  0  2  0  0  0  0  0  0  0  0  0
  -23.1310   -6.4770    1.9270 C   0  0  0  0  0  0  0  0  0  0  0  0
  -22.4070   -6.4970    2.9230 O   0  0  0  0  0  0  0  0  0  0  0  0
  -24.2490   -8.6550    1.3840 C   0  0  0  0  0  0  0  0  0  0  0  0
  -25.4530   -9.5830    1.5640 C   0  0  0  0  0  0  0  0  0  0  0  0
  -25.2720  -10.8840    0.7980 C   0  0  0  0  0  0  0  0  0  0  0  0
  -25.6890   -9.8580    3.0410 C   0  0  0  0  0  0  0  0  0  0  0  0
  -22.8240   -5.8060    0.8220 N   0  0  0  0  0  0  0  0  0  0  0  0
  -21.6000   -5.0200    0.7190 C   0  0  2  0  0  0  0  0  0  0  0  0
  -21.6990   -3.7170    1.5090 C   0  0  0  0  0  0  0  0  0  0  0  0
  -20.6840   -3.1430    1.9020 O   0  0  0  0  0  0  0  0  0  0  0  0
  -21.2750   -4.7210   -0.7470 C   0  0  0  0  0  0  0  0  0  0  0  0
  -20.5060   -5.8000   -1.5150 C   0  0  0  0  0  0  0  0  0  0  0  0
  -20.5070   -5.5070   -3.0050 C   0  0  0  0  0  0  0  0  0  0  0  0
  -19.0820   -5.9060   -0.9970 C   0  0  0  0  0  0  0  0  0  0  0  0
  -22.9210   -3.2530    1.7430 N   0  0  0  0  0  0  0  0  0  0  0  0
  -23.1300   -2.0260    2.5030 C   0  0  2  0  0  0  0  0  0  0  0  0
  -23.2920   -2.3060    3.9930 C   0  0  0  0  0  0  0  0  0  0  0  0
  -23.1490   -1.4070    4.8210 O   0  0  0  0  0  0  0  0  0  0  0  0
  -24.3500   -1.2690    1.9750 C   0  0  0  0  0  0  0  0  0  0  0  0
  -24.1330   -0.6380    0.6110 C   0  0  0  0  0  0  0  0  0  0  0  0
  -25.3570    0.0970    0.1070 C   0  0  0  0  0  0  0  0  0  0  0  0
  -26.4850   -0.2170    0.4870 O   0  0  0  0  0  0  0  0  0  0  0  0
  -25.1410    1.0860   -0.7520 N   0  0  0  0  0  0  0  0  0  0  0  0
  -23.5890   -3.5570    4.3290 N   0  0  0  0  0  0  0  0  0  0  0  0
  -23.7570   -3.9500    5.7230 C   0  0  2  0  0  0  0  0  0  0  0  0
  -22.5780   -4.7860    6.2090 C   0  0  0  0  0  0  0  0  0  0  0  0
  -22.5120   -5.1590    7.3800 O   0  0  0  0  0  0  0  0  0  0  0  0
  -25.0630   -4.7240    5.9090 C   0  0  0  0  0  0  0  0  0  0  0  0
  -26.2820   -3.9080    5.5300 C   0  0  0  0  0  0  0  0  0  0  0  0
  -26.1670   -2.6670    5.4520 O   0  0  0  0  0  0  0  0  0  0  0  0
  -27.3570   -4.5070    5.3140 O   0  0  0  0  0  0  0  0  0  0  0  0
  2  1  1  1
  3  2  1  0
  4  3  2  0
  5  2  1  0
  6  5  1  0
  7  6  1  0
  8  7  1  0
  9  8  1  0
 10  3  1  0
 11 10  1  6
 12 11  1  0
 13 12  2  0
 14 11  1  0
 15 14  1  0
 14 16  1  1
 17 15  1  0
 18 12  1  0
 19 18  1  0
 20 19  1  0
 21 20  2  0
 19 22  1  6
 23 22  1  0
 24 23  1  0
 25 23  1  0
 26 20  1  0
 27 26  1  0
 28 27  1  0
 29 28  2  0
 27 30  1  6
 31 30  1  0
 32 31  1  0
 33 31  2  0
 34 32  2  0
 35 34  1  0
 35 33  1  0
 36 28  1  0
 37 36  1  0
 38 37  1  0
 39 38  2  0
 37 40  1  6
 41 40  1  0
 42 41  1  0
 43 42  1  0
 44 43  1  0
 45 44  1  0
 46 44  2  0
 47 38  1  0
 48 47  1  0
 49 48  1  0
 50 49  2  0
 48 51  1  6
 52 51  1  0
 53 52  1  0
 54 52  1  0
 55 49  1  0
 56 55  1  0
 57 56  1  0
 58 57  2  0
 56 59  1  6
 60 59  1  0
 61 60  1  0
 62 60  1  0
 63 57  1  0
 64 63  1  0
 65 64  1  0
 66 65  2  0
 64 67  1  6
 68 67  1  0
 69 68  1  0
 70 69  2  0
 71 69  1  0
 72 65  1  0
 73 72  1  0
 74 73  1  0
 75 74  2  0
 73 76  1  6
 77 76  1  0
 78 77  2  0
 79 77  1  0
M  END
$$$$
8AU2
     RDKit          3D

 42 43  0  0  0  0  0  0  0  0999 V2000
   12.9810    7.8480   14.5100 N   0  0  0  0  0  0  0  0  0  0  0  0
   13.8920    9.0250   14.4510 C   0  0  2  0  0  0  0  0  0  0  0  0
   13.2140   10.2400   13.8140 C   0  0  0  0  0  0  0  0  0  0  0  0
   12.3640   10.1010   12.9360 O   0  0  0  0  0  0  0  0  0  0  0  0
   15.1830    8.6600   13.6950 C   0  0  0  0  0  0  0  0  0  0  0  0
   14.9510    8.1220   12.3090 C   0  0  0  0  0  0  0  0  0  0  0  0
   14.8440    8.9840   11.2170 C   0  0  0  0  0  0  0  0  0  0  0  0
   14.8470    6.7470   12.0860 C   0  0  0  0  0  0  0  0  0  0  0  0
   14.6270    8.4800    9.9360 C   0  0  0  0  0  0  0  0  0  0  0  0
   14.6310    6.2420   10.8070 C   0  0  0  0  0  0  0  0  0  0  0  0
   14.5220    7.1070    9.7320 C   0  0  0  0  0  0  0  0  0  0  0  0
   13.5690   11.4750   14.2310 N   0  0  0  0  0  0  0  0  0  0  0  0
   12.9980   12.6840   13.6330 C   0  0  2  0  0  0  0  0  0  0  0  0
   13.5920   13.0410   12.2570 C   0  0  0  0  0  0  0  0  0  0  0  0
   14.6850   12.5910   11.9230 O   0  0  0  0  0  0  0  0  0  0  0  0
   13.3490   13.7660   14.6650 C   0  0  0  0  0  0  0  0  0  0  0  0
   14.6430   13.2780   15.2940 C   0  0  0  0  0  0  0  0  0  0  0  0
   14.5300   11.7690   15.3080 C   0  0  0  0  0  0  0  0  0  0  0  0
   12.8770   13.8750   11.5010 N   0  0  0  0  0  0  0  0  0  0  0  0
   13.2470   14.2720   10.1670 C   0  0  2  0  0  0  0  0  0  0  0  0
   14.3510   15.3130   10.1930 C   0  0  0  0  0  0  0  0  0  0  0  0
   14.2690   16.3040   10.9230 O   0  0  0  0  0  0  0  0  0  0  0  0
   12.0530   14.8490    9.4150 C   0  0  0  0  0  0  0  0  0  0  0  0
   15.3600   15.0950    9.3530 N   0  0  0  0  0  0  0  0  0  0  0  0
   16.4370   16.0600    9.0370 C   0  0  1  0  0  0  0  0  0  0  0  0
   17.7200   15.7300    9.8180 C   0  0  1  0  0  0  0  0  0  0  0  0
   17.5400   15.8250   11.3170 C   0  0  0  0  0  0  0  0  0  0  0  0
   18.0760   14.3570    9.4760 O   0  0  0  0  0  0  0  0  0  0  0  0
   19.5190   13.7130    9.8680 P   0  0  0  0  0  0  0  0  0  0  0  0
   19.5130   12.5100    8.9260 O   0  0  0  0  0  0  0  0  0  0  0  0
   19.4700   13.3460   11.3200 O   0  0  0  0  0  0  0  0  0  0  0  0
   20.5790   14.7280    9.5660 O   0  0  0  0  0  0  0  0  0  0  0  0
   16.6670   16.0730    7.5260 C   0  0  0  0  0  0  0  0  0  0  0  0
   16.3390   15.0670    6.8760 O   0  0  0  0  0  0  0  0  0  0  0  0
   17.2510   17.1470    7.0100 N   0  0  0  0  0  0  0  0  0  0  0  0
   17.5490   17.2610    5.5900 C   0  0  2  0  0  0  0  0  0  0  0  0
   18.9950   17.5680    5.3270 C   0  0  0  0  0  0  0  0  0  0  0  0
   19.7820   17.9690    6.2040 O   0  0  0  0  0  0  0  0  0  0  0  0
   16.6610   18.3030    4.8990 C   0  0  0  0  0  0  0  0  0  0  0  0
   15.2150   17.8510    4.9890 C   0  0  0  0  0  0  0  0  0  0  0  0
   16.8760   19.6860    5.4900 C   0  0  0  0  0  0  0  0  0  0  0  0
   19.3970   17.4040    4.1650 O   0  0  0  0  0  0  0  0  0  0  0  0
  2  1  1  6
  3  2  1  0
  4  3  2  0
  5  2  1  0
  6  5  1  0
  7  6  2  0
  8  6  1  0
  9  7  1  0
 10  8  2  0
 11 10  1  0
 11  9  2  0
 12  3  1  0
 13 12  1  0
 13 14  1  6
 15 14  2  0
 16 13  1  0
 17 16  1  0
 18 17  1  0
 18 12  1  0
 19 14  1  0
 20 19  1  0
 21 20  1  0
 22 21  2  0
 20 23  1  1
 24 21  1  0
 25 24  1  6
 26 25  1  0
 26 27  1  1
 28 26  1  0
 29 28  1  0
 30 29  1  0
 31 29  1  0
 32 29  1  0
 33 25  1  0
 34 33  1  0
 35 33  1  0
 36 35  1  1
 37 36  1  0
 38 37  2  0
 39 36  1  0
 40 39  1  0
 41 39  1  0
 42 37  1  0
M  END
$$$$
8AUS
     RDKit          3D

 42 43  0  0  0  0  0  0  0  0999 V2000
   12.8640    7.9380   14.4640 N   0  0  0  0  0  0  0  0  0  0  0  0
   13.7700    9.1270   14.5010 C   0  0  2  0  0  0  0  0  0  0  0  0
   13.1020   10.3550   13.8910 C   0  0  0  0  0  0  0  0  0  0  0  0
   12.2490   10.2390   13.0130 O   0  0  0  0  0  0  0  0  0  0  0  0
   15.0870    8.8510   13.7680 C   0  0  0  0  0  0  0  0  0  0  0  0
   14.9200    8.2230   12.4150 C   0  0  0  0  0  0  0  0  0  0  0  0
   14.6300    9.0010   11.2910 C   0  0  0  0  0  0  0  0  0  0  0  0
   15.0770    6.8490   12.2510 C   0  0  0  0  0  0  0  0  0  0  0  0
   14.4770    8.4160   10.0380 C   0  0  0  0  0  0  0  0  0  0  0  0
   14.9290    6.2600   11.0000 C   0  0  0  0  0  0  0  0  0  0  0  0
   14.6370    7.0440    9.8910 C   0  0  0  0  0  0  0  0  0  0  0  0
   13.4630   11.5770   14.3360 N   0  0  0  0  0  0  0  0  0  0  0  0
   12.8820   12.7850   13.7620 C   0  0  2  0  0  0  0  0  0  0  0  0
   13.4640   13.1110   12.3790 C   0  0  0  0  0  0  0  0  0  0  0  0
   14.5330   12.6470   12.0480 O   0  0  0  0  0  0  0  0  0  0  0  0
   13.2490   13.8500   14.7960 C   0  0  0  0  0  0  0  0  0  0  0  0
   14.5720   13.3730   15.3530 C   0  0  0  0  0  0  0  0  0  0  0  0
   14.4510   11.8640   15.3900 C   0  0  0  0  0  0  0  0  0  0  0  0
   12.7740   13.9560   11.6280 N   0  0  0  0  0  0  0  0  0  0  0  0
   13.1370   14.3130   10.3020 C   0  0  2  0  0  0  0  0  0  0  0  0
   14.2630   15.3130   10.2990 C   0  0  0  0  0  0  0  0  0  0  0  0
   14.2100   16.3120   11.0370 O   0  0  0  0  0  0  0  0  0  0  0  0
   11.9580   14.9140    9.5720 C   0  0  0  0  0  0  0  0  0  0  0  0
   15.2790   15.0710    9.4650 N   0  0  0  0  0  0  0  0  0  0  0  0
   16.3500   16.0320    9.1320 C   0  0  1  0  0  0  0  0  0  0  0  0
   17.6520   15.7130    9.9000 C   0  0  1  0  0  0  0  0  0  0  0  0
   17.5080   15.8640   11.4040 C   0  0  0  0  0  0  0  0  0  0  0  0
   17.9580   14.3150    9.5660 O   0  0  0  0  0  0  0  0  0  0  0  0
   19.3830   13.6710    9.9540 P   0  0  0  0  0  0  0  0  0  0  0  0
   19.4100   12.4590    9.0600 O   0  0  0  0  0  0  0  0  0  0  0  0
   19.3500   13.3250   11.4130 O   0  0  0  0  0  0  0  0  0  0  0  0
   20.4460   14.6840    9.6510 O   0  0  0  0  0  0  0  0  0  0  0  0
   16.5600   16.0040    7.6200 C   0  0  0  0  0  0  0  0  0  0  0  0
   16.1980   15.0030    6.9930 O   0  0  0  0  0  0  0  0  0  0  0  0
   17.1170   17.0750    7.0690 N   0  0  0  0  0  0  0  0  0  0  0  0
   17.4140   17.1400    5.6580 C   0  0  2  0  0  0  0  0  0  0  0  0
   18.8750   17.4140    5.3950 C   0  0  0  0  0  0  0  0  0  0  0  0
   19.6390   17.8580    6.2530 O   0  0  0  0  0  0  0  0  0  0  0  0
   16.5810   18.1830    4.9400 C   0  0  0  0  0  0  0  0  0  0  0  0
   15.1390   17.8130    5.0590 C   0  0  0  0  0  0  0  0  0  0  0  0
   16.8060   19.6290    5.4390 C   0  0  0  0  0  0  0  0  0  0  0  0
   19.3090   17.2000    4.2450 O   0  0  0  0  0  0  0  0  0  0  0  0
  2  1  1  6
  3  2  1  0
  4  3  2  0
  5  2  1  0
  6  5  1  0
  7  6  2  0
  8  6  1  0
  9  7  1  0
 10  8  2  0
 11  9  2  0
 11 10  1  0
 12  3  1  0
 13 12  1  0
 13 14  1  6
 15 14  2  0
 16 13  1  0
 17 16  1  0
 18 17  1  0
 18 12  1  0
 19 14  1  0
 20 19  1  0
 21 20  1  0
 22 21  2  0
 20 23  1  1
 24 21  1  0
 25 24  1  6
 26 25  1  0
 26 27  1  1
 28 26  1  0
 29 28  1  0
 30 29  1  0
 31 29  1  0
 32 29  1  0
 33 25  1  0
 34 33  1  0
 35 33  1  0
 36 35  1  1
 37 36  1  0
 38 37  2  0
 39 36  1  0
 40 39  1  0
 41 39  1  0
 42 37  1  0
M  END
$$$$
5DZ1
     RDKit          3D

 79 79  0  0  0  0  0  0  0  0999 V2000
    7.3360  -16.3810   33.7930 N   0  0  0  0  0  0  0  0  0  0  0  0
    7.5640  -14.9430   33.8630 C   0  0  2  0  0  0  0  0  0  0  0  0
    6.6830  -14.2840   34.9150 C   0  0  0  0  0  0  0  0  0  0  0  0
    5.6010  -14.7790   35.2290 O   0  0  0  0  0  0  0  0  0  0  0  0
    7.3080  -14.2850   32.5070 C   0  0  0  0  0  0  0  0  0  0  0  0
    8.2260  -14.7390   31.3930 C   0  0  0  0  0  0  0  0  0  0  0  0
    7.9380  -13.9500   30.1270 C   0  0  0  0  0  0  0  0  0  0  0  0
    8.7320  -14.4750   28.9450 C   0  0  0  0  0  0  0  0  0  0  0  0
    8.4370  -13.7010   27.7080 N   0  0  0  0  0  0  0  0  0  0  0  0
    7.1500  -13.1590   35.4460 N   0  0  0  0  0  0  0  0  0  0  0  0
    6.3760  -12.3910   36.4120 C   0  0  2  0  0  0  0  0  0  0  0  0
    5.1500  -11.7860   35.7420 C   0  0  0  0  0  0  0  0  0  0  0  0
    4.0520  -11.8080   36.2960 O   0  0  0  0  0  0  0  0  0  0  0  0
    7.2190  -11.2720   37.0500 C   0  0  2  0  0  0  0  0  0  0  0  0
    8.4430  -11.8670   37.7470 C   0  0  0  0  0  0  0  0  0  0  0  0
    6.3840  -10.4580   38.0300 C   0  0  0  0  0  0  0  0  0  0  0  0
    9.3460  -10.8340   38.3750 C   0  0  0  0  0  0  0  0  0  0  0  0
    5.3510  -11.2580   34.5380 N   0  0  0  0  0  0  0  0  0  0  0  0
    4.2830  -10.6300   33.7730 C   0  0  2  0  0  0  0  0  0  0  0  0
    3.1550  -11.6100   33.4630 C   0  0  0  0  0  0  0  0  0  0  0  0
    1.9780  -11.2740   33.5910 O   0  0  0  0  0  0  0  0  0  0  0  0
    4.8390  -10.0450   32.4760 C   0  0  0  0  0  0  0  0  0  0  0  0
    3.8230   -9.4660   31.4930 C   0  0  0  0  0  0  0  0  0  0  0  0
    3.0190   -8.3590   32.1470 C   0  0  0  0  0  0  0  0  0  0  0  0
    4.5260   -8.9540   30.2480 C   0  0  0  0  0  0  0  0  0  0  0  0
    3.5230  -12.8190   33.0540 N   0  0  0  0  0  0  0  0  0  0  0  0
    2.5440  -13.8580   32.7580 C   0  0  2  0  0  0  0  0  0  0  0  0
    1.7610  -14.2490   34.0110 C   0  0  0  0  0  0  0  0  0  0  0  0
    0.5670  -14.5440   33.9420 O   0  0  0  0  0  0  0  0  0  0  0  0
    3.2350  -15.0860   32.1570 C   0  0  0  0  0  0  0  0  0  0  0  0
    2.2890  -16.1670   31.7330 C   0  0  0  0  0  0  0  0  0  0  0  0
    1.9770  -17.2420   32.5370 N   0  0  0  0  0  0  0  0  0  0  0  0
    1.5890  -16.3400   30.5860 C   0  0  0  0  0  0  0  0  0  0  0  0
    1.1250  -18.0300   31.9050 C   0  0  0  0  0  0  0  0  0  0  0  0
    0.8740  -17.5050   30.7190 N   0  0  0  0  0  0  0  0  0  0  0  0
    2.4370  -14.2400   35.1560 N   0  0  0  0  0  0  0  0  0  0  0  0
    1.8030  -14.5940   36.4210 C   0  0  2  0  0  0  0  0  0  0  0  0
    0.7950  -13.5340   36.8460 C   0  0  0  0  0  0  0  0  0  0  0  0
   -0.3030  -13.8550   37.3040 O   0  0  0  0  0  0  0  0  0  0  0  0
    2.8510  -14.7820   37.5210 C   0  0  0  0  0  0  0  0  0  0  0  0
    2.3010  -15.4180   38.7900 C   0  0  0  0  0  0  0  0  0  0  0  0
    3.3110  -15.3850   39.9280 C   0  0  0  0  0  0  0  0  0  0  0  0
    3.3170  -14.0990   40.6230 N   0  0  0  0  0  0  0  0  0  0  0  0
    4.4150  -13.4070   40.9100 C   0  0  0  0  0  0  0  0  0  0  0  0
    5.6070  -13.8700   40.5610 N   0  0  0  0  0  0  0  0  0  0  0  0
    4.3200  -12.2480   41.5470 N   0  0  0  0  0  0  0  0  0  0  0  0
    1.1760  -12.2690   36.6940 N   0  0  0  0  0  0  0  0  0  0  0  0
    0.3240  -11.1600   37.1030 C   0  0  2  0  0  0  0  0  0  0  0  0
   -0.8830  -11.0330   36.1850 C   0  0  0  0  0  0  0  0  0  0  0  0
   -1.9430  -10.5620   36.5990 O   0  0  0  0  0  0  0  0  0  0  0  0
    1.1220   -9.8550   37.1270 C   0  0  0  0  0  0  0  0  0  0  0  0
    2.2770   -9.8300   38.1340 C   0  0  0  0  0  0  0  0  0  0  0  0
    2.9980   -8.4900   38.1160 C   0  0  0  0  0  0  0  0  0  0  0  0
    1.7790  -10.1630   39.5360 C   0  0  0  0  0  0  0  0  0  0  0  0
   -0.7190  -11.4620   34.9380 N   0  0  0  0  0  0  0  0  0  0  0  0
   -1.8100  -11.4390   33.9730 C   0  0  2  0  0  0  0  0  0  0  0  0
   -2.8080  -12.5650   34.2360 C   0  0  0  0  0  0  0  0  0  0  0  0
   -3.9560  -12.4990   33.7990 O   0  0  0  0  0  0  0  0  0  0  0  0
   -1.2660  -11.5350   32.5450 C   0  0  0  0  0  0  0  0  0  0  0  0
   -0.8090  -10.2200   31.9120 C   0  0  0  0  0  0  0  0  0  0  0  0
   -0.0710  -10.4680   30.6030 C   0  0  0  0  0  0  0  0  0  0  0  0
   -2.0020   -9.3040   31.6870 C   0  0  0  0  0  0  0  0  0  0  0  0
   -2.3700  -13.5950   34.9530 N   0  0  0  0  0  0  0  0  0  0  0  0
   -3.2460  -14.7160   35.2790 C   0  0  2  0  0  0  0  0  0  0  0  0
   -4.0970  -14.4390   36.5150 C   0  0  0  0  0  0  0  0  0  0  0  0
   -5.1680  -15.0230   36.6800 O   0  0  0  0  0  0  0  0  0  0  0  0
   -2.4320  -15.9940   35.4890 C   0  0  0  0  0  0  0  0  0  0  0  0
   -2.1330  -16.7620   34.2130 C   0  0  0  0  0  0  0  0  0  0  0  0
   -1.6170  -18.1610   34.4910 C   0  0  0  0  0  0  0  0  0  0  0  0
   -1.8460  -19.0860   33.7110 O   0  0  0  0  0  0  0  0  0  0  0  0
   -0.9180  -18.3220   35.6090 N   0  0  0  0  0  0  0  0  0  0  0  0
   -3.6160  -13.5520   37.3810 N   0  0  0  0  0  0  0  0  0  0  0  0
   -4.3380  -13.2150   38.6030 C   0  0  2  0  0  0  0  0  0  0  0  0
   -5.6050  -12.4240   38.3010 C   0  0  0  0  0  0  0  0  0  0  0  0
   -6.6010  -12.5390   39.0140 O   0  0  0  0  0  0  0  0  0  0  0  0
   -3.4430  -12.4220   39.5580 C   0  0  0  0  0  0  0  0  0  0  0  0
   -2.2540  -13.2270   40.0480 C   0  0  0  0  0  0  0  0  0  0  0  0
   -2.3300  -14.4740   40.0410 O   0  0  0  0  0  0  0  0  0  0  0  0
   -1.2430  -12.6110   40.4450 O   0  0  0  0  0  0  0  0  0  0  0  0
  2  1  1  6
  3  2  1  0
  4  3  2  0
  5  2  1  0
  6  5  1  0
  7  6  1  0
  8  7  1  0
  9  8  1  0
 10  3  1  0
 11 10  1  6
 12 11  1  0
 13 12  2  0
 14 11  1  0
 15 14  1  0
 14 16  1  1
 17 15  1  0
 18 12  1  0
 19 18  1  0
 20 19  1  0
 21 20  2  0
 19 22  1  6
 23 22  1  0
 24 23  1  0
 25 23  1  0
 26 20  1  0
 27 26  1  0
 28 27  1  0
 29 28  2  0
 27 30  1  1
 31 30  1  0
 32 31  1  0
 33 31  2  0
 34 32  2  0
 35 34  1  0
 35 33  1  0
 36 28  1  0
 37 36  1  0
 38 37  1  0
 39 38  2  0
 37 40  1  1
 41 40  1  0
 42 41  1  0
 43 42  1  0
 44 43  1  0
 45 44  1  0
 46 44  2  0
 47 38  1  0
 48 47  1  0
 49 48  1  0
 50 49  2  0
 48 51  1  6
 52 51  1  0
 53 52  1  0
 54 52  1  0
 55 49  1  0
 56 55  1  0
 57 56  1  0
 58 57  2  0
 56 59  1  6
 60 59  1  0
 61 60  1  0
 62 60  1  0
 63 57  1  0
 64 63  1  0
 65 64  1  0
 66 65  2  0
 64 67  1  1
 68 67  1  0
 69 68  1  0
 70 69  2  0
 71 69  1  0
 72 65  1  0
 73 72  1  0
 74 73  1  0
 75 74  2  0
 73 76  1  1
 77 76  1  0
 78 77  2  0
 79 77  1  0
M  END
$$$$
7N9O
     RDKit          3D

 37 40  0  0  0  0  0  0  0  0999 V2000
   28.0090  -33.0930  -13.8630 C   0  0  0  0  0  0  0  0  0  0  0  0
   26.7000  -33.4680  -13.9950 C   0  0  0  0  0  0  0  0  0  0  0  0
   26.3190  -34.8920  -14.3260 C   0  0  0  0  0  0  0  0  0  0  0  0
   27.2790  -35.8320  -14.4840 C   0  0  0  0  0  0  0  0  0  0  0  0
   28.7460  -35.3800  -14.3140 C   0  0  0  0  0  0  0  0  0  0  0  0
   29.0940  -34.1120  -14.0170 C   0  0  1  0  0  0  0  0  0  0  0  0
   29.8870  -36.5510  -14.5190 C   0  0  0  0  0  0  0  0  0  0  0  0
   31.3300  -35.8320  -14.6010 C   0  0  2  0  0  0  0  0  0  0  0  0
   31.4200  -34.7190  -13.6040 C   0  0  2  0  0  0  0  0  0  0  0  0
   30.3310  -33.7040  -13.9460 C   0  0  2  0  0  0  0  0  0  0  0  0
   32.7290  -34.0810  -13.7570 C   0  0  1  0  0  0  0  0  0  0  0  0
   33.0250  -32.9670  -12.8510 C   0  0  2  0  0  0  0  0  0  0  0  0
   32.2500  -31.7940  -13.1830 C   0  0  0  0  0  0  0  0  0  0  0  0
   30.5760  -32.1940  -12.9720 C   0  0  0  0  0  0  0  0  0  0  0  0
   33.8980  -35.1170  -13.5230 C   0  0  0  0  0  0  0  0  0  0  0  0
   35.1950  -34.1010  -13.2170 C   0  0  0  0  0  0  0  0  0  0  0  0
   34.5420  -32.7210  -13.0410 C   0  0  2  0  0  0  0  0  0  0  0  0
   32.7540  -33.3110  -11.4040 C   0  0  0  0  0  0  0  0  0  0  0  0
   32.2630  -36.7380  -17.1800 C   0  0  0  0  0  0  0  0  0  0  0  0
   32.2310  -36.6230  -18.7290 C   0  0  0  0  0  0  0  0  0  0  0  0
   32.3090  -38.0090  -19.4650 C   0  0  0  0  0  0  0  0  0  0  0  0
   31.4940  -37.9920  -20.8080 C   0  0  0  0  0  0  0  0  0  0  0  0
   31.7000  -39.2380  -21.7300 C   0  0  0  0  0  0  0  0  0  0  0  0
   31.4270  -38.8160  -23.2360 C   0  0  0  0  0  0  0  0  0  0  0  0
   31.7280  -39.9460  -24.2650 C   0  0  0  0  0  0  0  0  0  0  0  0
   32.9360  -39.5590  -25.1990 C   0  0  0  0  0  0  0  0  0  0  0  0
   33.3550  -40.7670  -26.0330 C   0  0  0  0  0  0  0  0  0  0  0  0
   33.6930  -40.3620  -27.4760 C   0  0  0  0  0  0  0  0  0  0  0  0
   33.8470  -42.7910  -28.1650 C   0  0  0  0  0  0  0  0  0  0  0  0
   34.2490  -40.9890  -29.8680 C   0  0  0  0  0  0  0  0  0  0  0  0
   35.7310  -40.9990  -30.1910 C   0  0  0  0  0  0  0  0  0  0  0  0
   36.5790  -40.5980  -29.0070 C   0  0  0  0  0  0  0  0  0  0  0  0
   33.9400  -41.3920  -28.5050 N   0  0  0  0  0  0  0  0  0  0  0  0
   24.9340  -35.1700  -14.4760 O   0  0  0  0  0  0  0  0  0  0  0  0
   35.1100  -32.0650  -11.9610 O   0  0  0  0  0  0  0  0  0  0  0  0
   33.7680  -39.1710  -27.7900 O   0  0  0  0  0  0  0  0  0  0  0  0
   31.5580  -35.3170  -16.2620 S   0  0  0  0  0  0  0  0  0  0  0  0
  2  1  1  0
  3  2  1  0
  4  3  1  0
  5  4  1  0
  6  5  1  0
  6  1  1  6
  7  5  1  0
  8  7  1  0
  9  8  1  6
 10  9  1  0
 10  6  1  0
 11  9  1  0
 12 11  1  0
 13 12  1  0
 10 14  1  1
 14 13  1  0
 11 15  1  1
 16 15  1  0
 17 16  1  0
 17 12  1  0
 12 18  1  1
 20 19  1  0
 21 20  1  0
 22 21  1  0
 23 22  1  0
 24 23  1  0
 25 24  1  0
 26 25  1  0
 27 26  1  0
 28 27  1  0
 31 30  1  0
 32 31  1  0
 33 30  1  0
 33 29  1  0
 33 28  1  0
 34  3  1  0
 17 35  1  1
 36 28  1  0
 37 19  1  0
  8 37  1  6
M  END
$$$$
7Y8F
     RDKit          3D

 67 67  0  0  0  0  0  0  0  0999 V2000
   21.1970   11.7210   -2.0310 N   0  0  0  0  0  0  0  0  0  0  0  0
   20.5460   12.7000   -1.1170 C   0  0  2  0  0  0  0  0  0  0  0  0
   19.3560   13.3290   -1.8540 C   0  0  0  0  0  0  0  0  0  0  0  0
   19.5370   14.2720   -2.6200 O   0  0  0  0  0  0  0  0  0  0  0  0
   21.5680   13.7250   -0.6910 C   0  0  0  0  0  0  0  0  0  0  0  0
   18.1680   12.7830   -1.6490 N   0  0  0  0  0  0  0  0  0  0  0  0
   16.9420   13.0990   -2.4330 C   0  0  2  0  0  0  0  0  0  0  0  0
   16.4470   14.4900   -2.0400 C   0  0  0  0  0  0  0  0  0  0  0  0
   16.0410   15.2730   -2.9030 O   0  0  0  0  0  0  0  0  0  0  0  0
   15.8950   11.9880   -2.1810 C   0  0  2  0  0  0  0  0  0  0  0  0
   16.4050   10.6510   -2.7390 C   0  0  0  0  0  0  0  0  0  0  0  0
   14.5200   12.3720   -2.7360 C   0  0  0  0  0  0  0  0  0  0  0  0
   15.6130    9.4510   -2.2910 C   0  0  0  0  0  0  0  0  0  0  0  0
   16.4470   14.7740   -0.7560 N   0  0  0  0  0  0  0  0  0  0  0  0
   15.8700   16.0350   -0.2510 C   0  0  2  0  0  0  0  0  0  0  0  0
   16.6620   17.1710   -0.8960 C   0  0  0  0  0  0  0  0  0  0  0  0
   16.0510   18.1260   -1.3330 O   0  0  0  0  0  0  0  0  0  0  0  0
   15.9580   16.0250    1.2730 C   0  0  0  0  0  0  0  0  0  0  0  0
   15.0780   17.0200    2.0010 C   0  0  0  0  0  0  0  0  0  0  0  0
   13.6480   16.9190    1.5340 C   0  0  0  0  0  0  0  0  0  0  0  0
   15.1700   16.7870    3.4980 C   0  0  0  0  0  0  0  0  0  0  0  0
   17.9870   17.0550   -0.9930 N   0  0  0  0  0  0  0  0  0  0  0  0
   18.8460   18.0700   -1.6760 C   0  0  2  0  0  0  0  0  0  0  0  0
   18.3390   18.3210   -3.1000 C   0  0  0  0  0  0  0  0  0  0  0  0
   18.1550   19.5110   -3.4660 O   0  0  0  0  0  0  0  0  0  0  0  0
   20.2980   17.6220   -1.7030 C   0  0  0  0  0  0  0  0  0  0  0  0
   21.0830   17.9170   -0.4660 C   0  0  0  0  0  0  0  0  0  0  0  0
   21.1510   17.0260    0.5970 N   0  0  0  0  0  0  0  0  0  0  0  0
   21.9160   18.9430   -0.1760 C   0  0  0  0  0  0  0  0  0  0  0  0
   22.0020   17.4990    1.4880 C   0  0  0  0  0  0  0  0  0  0  0  0
   22.5000   18.6720    1.0260 N   0  0  0  0  0  0  0  0  0  0  0  0
   17.9810   17.2600   -3.8270 N   0  0  0  0  0  0  0  0  0  0  0  0
   17.5400   17.4280   -5.2350 C   0  0  2  0  0  0  0  0  0  0  0  0
   16.1430   18.0570   -5.2520 C   0  0  0  0  0  0  0  0  0  0  0  0
   15.9010   18.9030   -6.1340 O   0  0  0  0  0  0  0  0  0  0  0  0
   17.6190   16.1020   -5.9900 C   0  0  0  0  0  0  0  0  0  0  0  0
   19.0420   15.5850   -6.1530 C   0  0  0  0  0  0  0  0  0  0  0  0
   19.0820   14.0710   -6.3040 C   0  0  0  0  0  0  0  0  0  0  0  0
   20.3640   13.5430   -6.7640 N   0  0  0  0  0  0  0  0  0  0  0  0
   21.4770   13.4610   -6.0460 C   0  0  0  0  0  0  0  0  0  0  0  0
   21.5360   13.9250   -4.8040 N   0  0  0  0  0  0  0  0  0  0  0  0
   22.5500   12.9330   -6.6010 N   0  0  0  0  0  0  0  0  0  0  0  0
   15.2580   17.6680   -4.3210 N   0  0  0  0  0  0  0  0  0  0  0  0
   13.8550   18.1730   -4.2860 C   0  0  2  0  0  0  0  0  0  0  0  0
   13.8650   19.6190   -3.7940 C   0  0  0  0  0  0  0  0  0  0  0  0
   13.1110   20.4090   -4.3520 O   0  0  0  0  0  0  0  0  0  0  0  0
   12.9820   17.2780   -3.4130 C   0  0  0  0  0  0  0  0  0  0  0  0
   12.7360   15.8850   -3.9980 C   0  0  0  0  0  0  0  0  0  0  0  0
   11.7690   15.0690   -3.1460 C   0  0  0  0  0  0  0  0  0  0  0  0
   12.2360   15.9880   -5.4440 C   0  0  0  0  0  0  0  0  0  0  0  0
   14.7630   19.9790   -2.8720 N   0  0  0  0  0  0  0  0  0  0  0  0
   14.7870   21.3530   -2.2990 C   0  0  2  0  0  0  0  0  0  0  0  0
   15.3870   22.3550   -3.2780 C   0  0  0  0  0  0  0  0  0  0  0  0
   14.9410   23.5380   -3.2380 O   0  0  0  0  0  0  0  0  0  0  0  0
   15.5480   21.3820   -0.9810 C   0  0  0  0  0  0  0  0  0  0  0  0
   14.6750   20.9970    0.1980 C   0  0  0  0  0  0  0  0  0  0  0  0
   15.5230   20.9610    1.4600 C   0  0  0  0  0  0  0  0  0  0  0  0
   13.4840   21.9550    0.3040 C   0  0  0  0  0  0  0  0  0  0  0  0
   16.3250   21.9110   -4.1180 N   0  0  0  0  0  0  0  0  0  0  0  0
   16.9470   22.8000   -5.1320 C   0  0  2  0  0  0  0  0  0  0  0  0
   15.8530   23.2950   -6.0960 C   0  0  0  0  0  0  0  0  0  0  0  0
   15.9300   24.5200   -6.2500 O   0  0  0  0  0  0  0  0  0  0  0  0
   18.0900   22.1040   -5.8680 C   0  0  0  0  0  0  0  0  0  0  0  0
   19.0780   23.0990   -6.4630 C   0  0  0  0  0  0  0  0  0  0  0  0
   19.9640   22.4790   -7.5210 C   0  0  0  0  0  0  0  0  0  0  0  0
   19.6670   21.3990   -8.0610 O   0  0  0  0  0  0  0  0  0  0  0  0
   21.0660   23.1640   -7.8160 N   0  0  0  0  0  0  0  0  0  0  0  0
  2  1  1  0
  3  2  1  0
  4  3  2  0
  2  5  1  6
  6  3  1  0
  7  6  1  1
  8  7  1  0
  9  8  2  0
 10  7  1  0
 11 10  1  0
 10 12  1  6
 13 11  1  0
 14  8  1  0
 15 14  1  0
 16 15  1  0
 17 16  2  0
 15 18  1  1
 19 18  1  0
 20 19  1  0
 21 19  1  0
 22 16  1  0
 23 22  1  0
 24 23  1  0
 25 24  2  0
 23 26  1  6
 27 26  1  0
 28 27  1  0
 29 27  2  0
 30 28  2  0
 31 30  1  0
 31 29  1  0
 32 24  1  0
 33 32  1  0
 34 33  1  0
 35 34  2  0
 33 36  1  1
 37 36  1  0
 38 37  1  0
 39 38  1  0
 40 39  1  0
 41 40  1  0
 42 40  2  0
 43 34  1  0
 44 43  1  0
 45 44  1  0
 46 45  2  0
 44 47  1  1
 48 47  1  0
 49 48  1  0
 50 48  1  0
 51 45  1  0
 52 51  1  0
 53 52  1  0
 54 53  2  0
 52 55  1  1
 56 55  1  0
 57 56  1  0
 58 56  1  0
 59 53  1  0
 60 59  1  0
 61 60  1  0
 62 61  2  0
 60 63  1  6
 64 63  1  0
 65 64  1  0
 66 65  2  0
 67 65  1  0
M  END
$$$$
1GWQ
     RDKit          3D

 73 73  0  0  0  0  0  0  0  0999 V2000
    4.4240   22.9290   18.1040 N   0  0  0  0  0  0  0  0  0  0  0  0
    4.7420   24.3570   18.4090 C   0  0  2  0  0  0  0  0  0  0  0  0
    5.2610   24.5480   19.8250 C   0  0  0  0  0  0  0  0  0  0  0  0
    6.2130   25.3130   20.0210 O   0  0  0  0  0  0  0  0  0  0  0  0
    3.5530   25.2650   18.1140 C   0  0  0  0  0  0  0  0  0  0  0  0
    4.7180   23.8730   20.8440 N   0  0  0  0  0  0  0  0  0  0  0  0
    5.2350   24.0350   22.2070 C   0  0  2  0  0  0  0  0  0  0  0  0
    6.7340   23.7690   22.2820 C   0  0  0  0  0  0  0  0  0  0  0  0
    7.5030   24.5370   22.8720 O   0  0  0  0  0  0  0  0  0  0  0  0
    4.5280   23.1440   23.2290 C   0  0  2  0  0  0  0  0  0  0  0  0
    3.0480   23.5520   23.2470 C   0  0  0  0  0  0  0  0  0  0  0  0
    5.1550   23.2900   24.6140 C   0  0  0  0  0  0  0  0  0  0  0  0
    2.1150   22.4690   23.7440 C   0  0  0  0  0  0  0  0  0  0  0  0
    7.1530   22.6780   21.6590 N   0  0  0  0  0  0  0  0  0  0  0  0
    8.5420   22.2670   21.5930 C   0  0  2  0  0  0  0  0  0  0  0  0
    9.4220   23.4060   21.1000 C   0  0  0  0  0  0  0  0  0  0  0  0
   10.4640   23.7220   21.6570 O   0  0  0  0  0  0  0  0  0  0  0  0
    8.6910   21.0790   20.6410 C   0  0  0  0  0  0  0  0  0  0  0  0
    9.6040   19.9440   21.0890 C   0  0  0  0  0  0  0  0  0  0  0  0
    9.6360   18.8790   19.9920 C   0  0  0  0  0  0  0  0  0  0  0  0
   10.9940   20.4230   21.4520 C   0  0  0  0  0  0  0  0  0  0  0  0
    8.9510   24.0160   20.0310 N   0  0  0  0  0  0  0  0  0  0  0  0
    9.5360   25.1610   19.3570 C   0  0  2  0  0  0  0  0  0  0  0  0
    9.6680   26.3640   20.2820 C   0  0  0  0  0  0  0  0  0  0  0  0
   10.6890   27.0420   20.3010 O   0  0  0  0  0  0  0  0  0  0  0  0
    8.6020   25.5400   18.1930 C   0  0  0  0  0  0  0  0  0  0  0  0
    9.4160   26.0850   17.0640 C   0  0  0  0  0  0  0  0  0  0  0  0
    9.9720   25.2160   16.1520 N   0  0  0  0  0  0  0  0  0  0  0  0
    9.7720   27.3380   16.7050 C   0  0  0  0  0  0  0  0  0  0  0  0
   10.6470   25.9230   15.2590 C   0  0  0  0  0  0  0  0  0  0  0  0
   10.5400   27.2150   15.5670 N   0  0  0  0  0  0  0  0  0  0  0  0
    8.6350   26.6210   21.0700 N   0  0  0  0  0  0  0  0  0  0  0  0
    8.6610   27.7110   22.0240 C   0  0  2  0  0  0  0  0  0  0  0  0
    9.7790   27.4330   23.0280 C   0  0  0  0  0  0  0  0  0  0  0  0
   10.6640   28.2410   23.2620 O   0  0  0  0  0  0  0  0  0  0  0  0
    7.3500   27.8820   22.8220 C   0  0  0  0  0  0  0  0  0  0  0  0
    7.1480   29.2320   23.4840 C   0  0  0  0  0  0  0  0  0  0  0  0
    6.4680   29.2000   24.8450 C   0  0  0  0  0  0  0  0  0  0  0  0
    5.3110   28.3260   24.9340 N   0  0  0  0  0  0  0  0  0  0  0  0
    4.8930   27.5460   25.9180 C   0  0  0  0  0  0  0  0  0  0  0  0
    5.4970   27.4190   27.0990 N   0  0  0  0  0  0  0  0  0  0  0  0
    3.7910   26.8190   25.7480 N   0  0  0  0  0  0  0  0  0  0  0  0
    9.6930   26.2490   23.6390 N   0  0  0  0  0  0  0  0  0  0  0  0
   10.6640   25.8840   24.6840 C   0  0  2  0  0  0  0  0  0  0  0  0
   12.0880   25.8610   24.2060 C   0  0  0  0  0  0  0  0  0  0  0  0
   12.9610   26.2190   24.9960 O   0  0  0  0  0  0  0  0  0  0  0  0
   10.2270   24.5790   25.3470 C   0  0  0  0  0  0  0  0  0  0  0  0
    8.7980   24.6990   25.9050 C   0  0  0  0  0  0  0  0  0  0  0  0
    8.2260   23.3680   26.3290 C   0  0  0  0  0  0  0  0  0  0  0  0
    8.7440   25.7050   27.0540 C   0  0  0  0  0  0  0  0  0  0  0  0
   12.3370   25.4890   22.9580 N   0  0  0  0  0  0  0  0  0  0  0  0
   13.6940   25.4700   22.4390 C   0  0  2  0  0  0  0  0  0  0  0  0
   14.2610   26.8580   22.1880 C   0  0  0  0  0  0  0  0  0  0  0  0
   15.4870   27.0120   22.2550 O   0  0  0  0  0  0  0  0  0  0  0  0
   13.7550   24.6090   21.1770 C   0  0  0  0  0  0  0  0  0  0  0  0
   13.7050   23.1000   21.4170 C   0  0  0  0  0  0  0  0  0  0  0  0
   13.4430   22.3220   20.1390 C   0  0  0  0  0  0  0  0  0  0  0  0
   15.0060   22.6390   22.0520 C   0  0  0  0  0  0  0  0  0  0  0  0
   13.4240   27.8580   21.9310 N   0  0  0  0  0  0  0  0  0  0  0  0
   13.8830   29.2210   21.6960 C   0  0  2  0  0  0  0  0  0  0  0  0
   13.9560   30.0590   22.9740 C   0  0  0  0  0  0  0  0  0  0  0  0
   14.5810   31.1230   22.9550 O   0  0  0  0  0  0  0  0  0  0  0  0
   12.9830   29.9970   20.7390 C   0  0  0  0  0  0  0  0  0  0  0  0
   13.2100   29.7470   19.2600 C   0  0  0  0  0  0  0  0  0  0  0  0
   12.0990   30.4250   18.4770 C   0  0  0  0  0  0  0  0  0  0  0  0
   11.1940   29.7540   17.9850 O   0  0  0  0  0  0  0  0  0  0  0  0
   12.2170   31.7490   18.4140 N   0  0  0  0  0  0  0  0  0  0  0  0
   13.3190   29.5610   24.0280 N   0  0  0  0  0  0  0  0  0  0  0  0
   13.2950   30.2960   25.2900 C   0  0  2  0  0  0  0  0  0  0  0  0
   13.8130   29.4920   26.4840 C   0  0  0  0  0  0  0  0  0  0  0  0
   14.9890   29.7180   26.8760 O   0  0  0  0  0  0  0  0  0  0  0  0
   11.8510   30.7560   25.5500 C   0  0  0  0  0  0  0  0  0  0  0  0
   12.9190   29.0080   27.2400 O   0  0  0  0  0  0  0  0  0  0  0  0
  2  1  1  0
  3  2  1  0
  4  3  2  0
  2  5  1  1
  6  3  1  0
  7  6  1  6
  8  7  1  0
  9  8  2  0
 10  7  1  0
 11 10  1  0
 10 12  1  1
 13 11  1  0
 14  8  1  0
 15 14  1  0
 16 15  1  0
 17 16  2  0
 15 18  1  6
 19 18  1  0
 20 19  1  0
 21 19  1  0
 22 16  1  0
 23 22  1  0
 24 23  1  0
 25 24  2  0
 23 26  1  6
 27 26  1  0
 28 27  1  0
 29 27  2  0
 30 28  2  0
 31 30  1  0
 31 29  1  0
 32 24  1  0
 33 32  1  0
 34 33  1  0
 35 34  2  0
 33 36  1  1
 37 36  1  0
 38 37  1  0
 39 38  1  0
 40 39  1  0
 41 40  1  0
 42 40  2  0
 43 34  1  0
 44 43  1  0
 45 44  1  0
 46 45  2  0
 44 47  1  6
 48 47  1  0
 49 48  1  0
 50 48  1  0
 51 45  1  0
 52 51  1  0
 53 52  1  0
 54 53  2  0
 52 55  1  6
 56 55  1  0
 57 56  1  0
 58 56  1  0
 59 53  1  0
 60 59  1  0
 61 60  1  0
 62 61  2  0
 60 63  1  6
 64 63  1  0
 65 64  1  0
 66 65  2  0
 67 65  1  0
 68 61  1  0
 69 68  1  0
 70 69  1  0
 71 70  2  0
 69 72  1  1
 73 70  1  0
M  END
$$$$
2I0J
     RDKit          3D

 21 24  0  0  0  0  0  0  0  0999 V2000
   33.7770   -5.1350   12.6810 C   0  0  1  0  0  0  0  0  0  0  0  0
   32.8290   -6.2530   12.2810 C   0  0  0  0  0  0  0  0  0  0  0  0
   32.0240   -6.8730   13.2730 C   0  0  0  0  0  0  0  0  0  0  0  0
   31.1230   -7.9440   12.9310 C   0  0  0  0  0  0  0  0  0  0  0  0
   31.0470   -8.3620   11.5760 C   0  0  0  0  0  0  0  0  0  0  0  0
   36.8180   -4.8700    9.3300 C   0  0  0  0  0  0  0  0  0  0  0  0
   35.9450   -4.7910    6.9730 C   0  0  0  0  0  0  0  0  0  0  0  0
   35.1710   -5.1810    8.0570 C   0  0  0  0  0  0  0  0  0  0  0  0
   32.9110   -2.9270   12.0410 C   0  0  0  0  0  0  0  0  0  0  0  0
   33.7130   -3.5030   10.8610 C   0  0  0  0  0  0  0  0  0  0  0  0
   34.6020   -4.5890   11.4670 C   0  0  2  0  0  0  0  0  0  0  0  0
   30.3190   -8.5760   13.9080 O   0  0  0  0  0  0  0  0  0  0  0  0
   31.8460   -7.7280   10.6190 C   0  0  0  0  0  0  0  0  0  0  0  0
   32.7370   -6.6670   10.9660 C   0  0  0  0  0  0  0  0  0  0  0  0
   33.4910   -6.0940    9.9580 O   0  0  0  0  0  0  0  0  0  0  0  0
   34.7880   -5.6820   10.4280 C   0  0  1  0  0  0  0  0  0  0  0  0
   35.6130   -5.2260    9.2300 C   0  0  0  0  0  0  0  0  0  0  0  0
   37.5960   -4.4780    8.2570 C   0  0  0  0  0  0  0  0  0  0  0  0
   37.1650   -4.4310    7.0760 C   0  0  0  0  0  0  0  0  0  0  0  0
   37.9480   -4.0350    6.0050 O   0  0  0  0  0  0  0  0  0  0  0  0
   32.9600   -3.9630   13.1940 C   0  0  0  0  0  0  0  0  0  0  0  0
  2  1  1  0
  3  2  1  0
  4  3  1  0
  5  4  1  0
  8  7  1  0
 10  9  1  0
 11 10  1  6
 11  1  1  0
 12  4  1  0
 13  5  1  0
 14 13  1  0
 14  2  1  0
 15 14  1  0
 16 15  1  0
 16 11  1  0
 16 17  1  6
 17  8  1  0
 17  6  1  0
 18  6  1  0
 19 18  1  0
 19  7  1  0
 20 19  1  0
 21  9  1  0
  1 21  1  6
M  END
$$$$
5KRC
     RDKit          3D

 23 24  0  0  0  0  0  0  0  0999 V2000
   -8.6340   -3.5740   50.1790 O   0  0  0  0  0  0  0  0  0  0  0  0
   -9.8260   -3.6300   50.4200 C   0  0  0  0  0  0  0  0  0  0  0  0
  -10.6810   -4.2860   49.5100 O   0  0  0  0  0  0  0  0  0  0  0  0
  -10.0660   -5.1040   48.5460 C   0  0  1  0  0  0  0  0  0  0  0  0
   -9.8500   -6.4870   49.1170 C   0  0  0  0  0  0  0  0  0  0  0  0
  -10.9940   -5.1820   47.3530 C   0  0  0  0  0  0  0  0  0  0  0  0
  -10.3460   -2.9890   51.7030 C   0  0  0  0  0  0  0  0  0  0  0  0
   -9.4120   -2.3860   52.5340 C   0  0  0  0  0  0  0  0  0  0  0  0
   -8.0520   -2.3840   52.1700 O   0  0  0  0  0  0  0  0  0  0  0  0
   -9.7960   -1.7830   53.7210 C   0  0  0  0  0  0  0  0  0  0  0  0
  -11.1290   -1.7740   54.0900 C   0  0  0  0  0  0  0  0  0  0  0  0
  -11.5210   -1.1600   55.2940 O   0  0  0  0  0  0  0  0  0  0  0  0
  -12.0710   -2.3710   53.2670 C   0  0  0  0  0  0  0  0  0  0  0  0
  -11.6930   -2.9770   52.0770 C   0  0  0  0  0  0  0  0  0  0  0  0
  -12.7840   -3.6050   51.2350 C   0  0  0  0  0  0  0  0  0  0  0  0
  -13.9860   -3.0000   51.1230 C   0  0  0  0  0  0  0  0  0  0  0  0
  -15.0840   -3.6190   50.2770 C   0  0  0  0  0  0  0  0  0  0  0  0
  -15.3410   -2.7820   49.0340 C   0  0  0  0  0  0  0  0  0  0  0  0
  -14.1130   -2.6200   48.1620 C   0  0  0  0  0  0  0  0  0  0  0  0
  -13.9200   -3.7990   47.2270 C   0  0  0  0  0  0  0  0  0  0  0  0
  -14.6780   -4.7430   47.2860 O   0  0  0  0  0  0  0  0  0  0  0  0
  -12.7870   -3.8070   46.2230 C   0  0  0  0  0  0  0  0  0  0  0  0
  -11.4240   -3.8070   46.8790 C   0  0  0  0  0  0  0  0  0  0  0  0
  2  1  1  0
  3  2  1  0
  4  3  1  0
  4  5  1  1
  6  4  1  0
  7  2  1  0
  8  7  1  0
  9  8  1  0
 10  8  1  0
 11 10  1  0
 12 11  1  0
 13 11  1  0
 14 13  1  0
 14  7  1  0
 15 14  1  0
 16 15  1  0
 17 16  1  0
 18 17  1  0
 19 18  1  0
 20 19  1  0
 21 20  1  0
 22 20  1  0
 23 22  1  0
 23  6  1  0
M  END
$$$$
1R5K
     RDKit          3D

 27 29  0  0  0  0  0  0  0  0999 V2000
  -11.7040   48.0230  329.6940 C   0  0  0  0  0  0  0  0  0  0  0  0
  -11.7420   46.9430  328.8130 C   0  0  0  0  0  0  0  0  0  0  0  0
  -11.4390   45.6560  329.2890 C   0  0  0  0  0  0  0  0  0  0  0  0
  -11.0920   45.4210  330.6240 C   0  0  0  0  0  0  0  0  0  0  0  0
  -11.0510   46.5040  331.4950 C   0  0  0  0  0  0  0  0  0  0  0  0
  -11.3430   47.8050  331.0310 C   0  0  0  0  0  0  0  0  0  0  0  0
  -11.3030   48.8900  331.9190 C   0  0  0  0  0  0  0  0  0  0  0  0
  -12.4460   49.8730  331.9730 C   0  0  0  0  0  0  0  0  0  0  0  0
  -13.7290   49.0730  332.1280 C   0  0  0  0  0  0  0  0  0  0  0  0
  -10.2190   49.0280  332.7860 C   0  0  2  0  0  0  0  0  0  0  0  0
  -10.2640   50.1060  333.6690 C   0  0  0  0  0  0  0  0  0  0  0  0
   -9.2020   51.0010  333.7760 C   0  0  0  0  0  0  0  0  0  0  0  0
   -9.2490   52.0630  334.6770 C   0  0  0  0  0  0  0  0  0  0  0  0
  -10.3600   52.2360  335.4860 C   0  0  0  0  0  0  0  0  0  0  0  0
  -11.4240   51.3470  335.3950 C   0  0  0  0  0  0  0  0  0  0  0  0
  -11.3750   50.2900  334.4860 C   0  0  0  0  0  0  0  0  0  0  0  0
   -8.9400   48.5710  332.4690 C   0  0  0  0  0  0  0  0  0  0  0  0
   -8.0900   48.1830  333.4990 C   0  0  0  0  0  0  0  0  0  0  0  0
   -6.8010   47.7330  333.2360 C   0  0  0  0  0  0  0  0  0  0  0  0
   -8.4910   48.5350  331.1560 C   0  0  0  0  0  0  0  0  0  0  0  0
   -7.2000   48.0900  330.8860 C   0  0  0  0  0  0  0  0  0  0  0  0
   -6.3510   47.6940  331.9170 C   0  0  0  0  0  0  0  0  0  0  0  0
   -5.0660   47.2610  331.6170 C   0  0  0  0  0  0  0  0  0  0  0  0
   -4.1820   46.8710  332.6220 C   0  0  0  0  0  0  0  0  0  0  0  0
   -2.8900   46.4520  332.2780 C   0  0  0  0  0  0  0  0  0  0  0  0
   -2.0410   46.1010  333.1070 O   0  0  0  0  0  0  0  0  0  0  0  0
   -2.5780   46.4160  331.0930 O   0  0  0  0  0  0  0  0  0  0  0  0
  2  1  1  0
  3  2  1  0
  4  3  1  0
  5  4  1  0
  6  5  1  0
  6  1  1  0
  7  6  1  0
  8  7  1  0
  9  8  1  0
 10  7  1  6
 11 10  1  0
 12 11  1  0
 13 12  1  0
 14 13  1  0
 15 14  1  0
 16 15  1  0
 16 11  1  0
 17 10  1  0
 18 17  1  0
 19 18  1  0
 20 17  1  0
 21 20  1  0
 22 21  1  0
 22 19  1  0
 23 22  1  0
 24 23  1  0
 25 24  1  0
 26 25  1  0
 27 25  1  0
M  END
$$$$
4TV1
     RDKit          3D

 76 76  0  0  0  0  0  0  0  0999 V2000
   28.7310   26.8560    6.3340 N   0  0  0  0  0  0  0  0  0  0  0  0
   28.1870   25.4970    6.3940 C   0  0  2  0  0  0  0  0  0  0  0  0
   27.8270   24.9680    5.0020 C   0  0  0  0  0  0  0  0  0  0  0  0
   27.1510   25.6420    4.2230 O   0  0  0  0  0  0  0  0  0  0  0  0
   26.9690   25.4400    7.3190 C   0  0  0  0  0  0  0  0  0  0  0  0
   28.2800   23.7560    4.6990 N   0  0  0  0  0  0  0  0  0  0  0  0
   28.1430   23.1920    3.3580 C   0  0  2  0  0  0  0  0  0  0  0  0
   26.6950   22.9790    2.9270 C   0  0  0  0  0  0  0  0  0  0  0  0
   26.3390   23.1920    1.7680 O   0  0  0  0  0  0  0  0  0  0  0  0
   28.8570   21.8410    3.2540 C   0  0  2  0  0  0  0  0  0  0  0  0
   30.3420   22.0090    3.5730 C   0  0  0  0  0  0  0  0  0  0  0  0
   28.6610   21.2400    1.8730 C   0  0  0  0  0  0  0  0  0  0  0  0
   31.0590   20.7010    3.7180 C   0  0  0  0  0  0  0  0  0  0  0  0
   25.8680   22.5090    3.8470 N   0  0  0  0  0  0  0  0  0  0  0  0
   24.4640   22.2750    3.5260 C   0  0  2  0  0  0  0  0  0  0  0  0
   23.8060   23.5890    3.1200 C   0  0  0  0  0  0  0  0  0  0  0  0
   22.9730   23.6420    2.2050 O   0  0  0  0  0  0  0  0  0  0  0  0
   23.7530   21.6860    4.7430 C   0  0  0  0  0  0  0  0  0  0  0  0
   22.2440   21.4850    4.6310 C   0  0  0  0  0  0  0  0  0  0  0  0
   21.8970   20.6970    3.3720 C   0  0  0  0  0  0  0  0  0  0  0  0
   21.7230   20.7670    5.8770 C   0  0  0  0  0  0  0  0  0  0  0  0
   24.1850   24.6490    3.8220 N   0  0  0  0  0  0  0  0  0  0  0  0
   23.6540   25.9830    3.5730 C   0  0  2  0  0  0  0  0  0  0  0  0
   23.9540   26.4150    2.1380 C   0  0  0  0  0  0  0  0  0  0  0  0
   23.0810   26.9290    1.4430 O   0  0  0  0  0  0  0  0  0  0  0  0
   24.2490   26.9730    4.5800 C   0  0  0  0  0  0  0  0  0  0  0  0
   23.7950   28.3820    4.3790 C   0  0  0  0  0  0  0  0  0  0  0  0
   22.5920   28.8540    4.8570 N   0  0  0  0  0  0  0  0  0  0  0  0
   24.3820   29.4220    3.7410 C   0  0  0  0  0  0  0  0  0  0  0  0
   22.4570   30.1260    4.5240 C   0  0  0  0  0  0  0  0  0  0  0  0
   23.5290   30.4940    3.8450 N   0  0  0  0  0  0  0  0  0  0  0  0
   25.1860   26.1720    1.6890 N   0  0  0  0  0  0  0  0  0  0  0  0
   25.5660   26.4660    0.3030 C   0  0  2  0  0  0  0  0  0  0  0  0
   24.8300   25.5580   -0.6820 C   0  0  0  0  0  0  0  0  0  0  0  0
   24.3160   26.0200   -1.6960 O   0  0  0  0  0  0  0  0  0  0  0  0
   27.0870   26.3450    0.1250 C   0  0  0  0  0  0  0  0  0  0  0  0
   27.5710   26.4340   -1.3270 C   0  0  0  0  0  0  0  0  0  0  0  0
   27.5470   27.8670   -1.8550 C   0  0  0  0  0  0  0  0  0  0  0  0
   28.0000   27.9640   -3.2480 N   0  0  0  0  0  0  0  0  0  0  0  0
   29.2360   28.2950   -3.6170 C   0  0  0  0  0  0  0  0  0  0  0  0
   30.1600   28.5630   -2.7030 N   0  0  0  0  0  0  0  0  0  0  0  0
   29.5480   28.3610   -4.9060 N   0  0  0  0  0  0  0  0  0  0  0  0
   24.7470   24.2670   -0.3720 N   0  0  0  0  0  0  0  0  0  0  0  0
   24.1190   23.3200   -1.2810 C   0  0  2  0  0  0  0  0  0  0  0  0
   22.6270   23.5640   -1.4910 C   0  0  0  0  0  0  0  0  0  0  0  0
   22.0870   23.2200   -2.5370 O   0  0  0  0  0  0  0  0  0  0  0  0
   24.3410   21.8790   -0.8090 C   0  0  0  0  0  0  0  0  0  0  0  0
   25.7390   21.2830   -0.9330 C   0  0  0  0  0  0  0  0  0  0  0  0
   25.7190   19.8310   -0.4870 C   0  0  0  0  0  0  0  0  0  0  0  0
   26.2500   21.3970   -2.3650 C   0  0  0  0  0  0  0  0  0  0  0  0
   21.9620   24.1280   -0.4850 N   0  0  0  0  0  0  0  0  0  0  0  0
   20.5510   24.4680   -0.5960 C   0  0  2  0  0  0  0  0  0  0  0  0
   20.2760   25.6050   -1.5780 C   0  0  0  0  0  0  0  0  0  0  0  0
   19.1310   25.8360   -1.9720 O   0  0  0  0  0  0  0  0  0  0  0  0
   19.9810   24.7940    0.7890 C   0  0  0  0  0  0  0  0  0  0  0  0
   19.6220   23.5210    1.5800 C   0  0  0  0  0  0  0  0  0  0  0  0
   19.5920   23.7720    3.0970 C   0  0  0  0  0  0  0  0  0  0  0  0
   18.2800   22.9840    1.0850 C   0  0  0  0  0  0  0  0  0  0  0  0
   21.3240   26.3090   -1.9830 N   0  0  0  0  0  0  0  0  0  0  0  0
   21.1470   27.4640   -2.8640 C   0  0  2  0  0  0  0  0  0  0  0  0
   21.4880   27.1390   -4.3210 C   0  0  0  0  0  0  0  0  0  0  0  0
   21.2570   27.9460   -5.2210 O   0  0  0  0  0  0  0  0  0  0  0  0
   22.0050   28.6230   -2.3700 C   0  0  0  0  0  0  0  0  0  0  0  0
   21.6460   29.0750   -0.9630 C   0  0  0  0  0  0  0  0  0  0  0  0
   22.6120   30.1080   -0.4230 C   0  0  0  0  0  0  0  0  0  0  0  0
   23.4040   29.8290    0.4810 O   0  0  0  0  0  0  0  0  0  0  0  0
   22.5620   31.3060   -0.9810 N   0  0  0  0  0  0  0  0  0  0  0  0
   22.0390   25.9530   -4.5430 N   0  0  0  0  0  0  0  0  0  0  0  0
   22.4240   25.5290   -5.8850 C   0  0  2  0  0  0  0  0  0  0  0  0
   21.3000   24.7600   -6.5720 C   0  0  0  0  0  0  0  0  0  0  0  0
   20.2210   25.3040   -6.8140 O   0  0  0  0  0  0  0  0  0  0  0  0
   23.6870   24.6710   -5.8220 C   0  0  0  0  0  0  0  0  0  0  0  0
   24.7920   25.3070   -5.0000 C   0  0  0  0  0  0  0  0  0  0  0  0
   26.1640   24.8030   -5.3760 C   0  0  0  0  0  0  0  0  0  0  0  0
   26.3170   23.5760   -5.5720 O   0  0  0  0  0  0  0  0  0  0  0  0
   27.0870   25.6430   -5.4840 O   0  0  0  0  0  0  0  0  0  0  0  0
  2  1  1  0
  3  2  1  0
  4  3  2  0
  2  5  1  1
  6  3  1  0
  7  6  1  1
  8  7  1  0
  9  8  2  0
 10  7  1  0
 11 10  1  0
 10 12  1  6
 13 11  1  0
 14  8  1  0
 15 14  1  0
 16 15  1  0
 17 16  2  0
 15 18  1  1
 19 18  1  0
 20 19  1  0
 21 19  1  0
 22 16  1  0
 23 22  1  0
 24 23  1  0
 25 24  2  0
 23 26  1  1
 27 26  1  0
 28 27  1  0
 29 27  2  0
 30 28  2  0
 31 30  1  0
 31 29  1  0
 32 24  1  0
 33 32  1  0
 34 33  1  0
 35 34  2  0
 33 36  1  1
 37 36  1  0
 38 37  1  0
 39 38  1  0
 40 39  1  0
 41 40  1  0
 42 40  2  0
 43 34  1  0
 44 43  1  0
 45 44  1  0
 46 45  2  0
 44 47  1  1
 48 47  1  0
 49 48  1  0
 50 48  1  0
 51 45  1  0
 52 51  1  0
 53 52  1  0
 54 53  2  0
 52 55  1  1
 56 55  1  0
 57 56  1  0
 58 56  1  0
 59 53  1  0
 60 59  1  0
 61 60  1  0
 62 61  2  0
 60 63  1  1
 64 63  1  0
 65 64  1  0
 66 65  2  0
 67 65  1  0
 68 61  1  0
 69 68  1  0
 70 69  1  0
 71 70  2  0
 69 72  1  1
 73 72  1  0
 74 73  1  0
 75 74  2  0
 76 74  1  0
M  END
$$$$
7OQ8
     RDKit          3D

 71 72  0  0  0  0  0  0  0  0999 V2000
   12.6180    7.5510   14.0060 N   0  0  0  0  0  0  0  0  0  0  0  0
   13.5380    8.6790   14.1030 C   0  0  2  0  0  0  0  0  0  0  0  0
   12.9750    9.8860   13.3630 C   0  0  0  0  0  0  0  0  0  0  0  0
   12.1670    9.7460   12.4450 O   0  0  0  0  0  0  0  0  0  0  0  0
   14.9050    8.3100   13.5320 C   0  0  0  0  0  0  0  0  0  0  0  0
   14.8500    7.7800   12.1350 C   0  0  0  0  0  0  0  0  0  0  0  0
   14.9420    8.6340   11.0460 C   0  0  0  0  0  0  0  0  0  0  0  0
   14.6980    6.4230   11.9080 C   0  0  0  0  0  0  0  0  0  0  0  0
   14.8850    8.1390    9.7550 C   0  0  0  0  0  0  0  0  0  0  0  0
   14.6380    5.9240   10.6220 C   0  0  0  0  0  0  0  0  0  0  0  0
   14.7340    6.7800    9.5430 C   0  0  0  0  0  0  0  0  0  0  0  0
   13.6590    8.9140   15.0360 H   0  0  0  0  0  0  0  0  0  0  0  0
   15.4650    9.1030   13.5260 H   0  0  0  0  0  0  0  0  0  0  0  0
   15.3040    7.6270   14.0930 H   0  0  0  0  0  0  0  0  0  0  0  0
   15.0420    9.5490   11.1850 H   0  0  0  0  0  0  0  0  0  0  0  0
   14.6360    5.8410   12.6300 H   0  0  0  0  0  0  0  0  0  0  0  0
   14.9490    8.7190    9.0310 H   0  0  0  0  0  0  0  0  0  0  0  0
   14.5330    5.0100   10.4830 H   0  0  0  0  0  0  0  0  0  0  0  0
   14.6970    6.4440    8.6770 H   0  0  0  0  0  0  0  0  0  0  0  0
   13.4000   11.0770   13.7590 N   0  0  0  0  0  0  0  0  0  0  0  0
   12.8370   12.2920   13.1640 C   0  0  2  0  0  0  0  0  0  0  0  0
   13.4870   12.6540   11.8360 C   0  0  0  0  0  0  0  0  0  0  0  0
   14.5980   12.2350   11.4910 O   0  0  0  0  0  0  0  0  0  0  0  0
   13.1000   13.3610   14.2340 C   0  0  0  0  0  0  0  0  0  0  0  0
   14.3030   12.8860   14.9420 C   0  0  0  0  0  0  0  0  0  0  0  0
   14.2330   11.3740   14.9410 C   0  0  0  0  0  0  0  0  0  0  0  0
   11.8810   12.1960   13.0260 H   0  0  0  0  0  0  0  0  0  0  0  0
   13.2590   14.2200   13.8130 H   0  0  0  0  0  0  0  0  0  0  0  0
   12.3420   13.4220   14.8360 H   0  0  0  0  0  0  0  0  0  0  0  0
   15.0970   13.1910   14.4750 H   0  0  0  0  0  0  0  0  0  0  0  0
   14.3010   13.2270   15.8510 H   0  0  0  0  0  0  0  0  0  0  0  0
   15.1170   10.9870   14.8470 H   0  0  0  0  0  0  0  0  0  0  0  0
   13.8110   11.0470   15.7520 H   0  0  0  0  0  0  0  0  0  0  0  0
   12.7620   13.4550   11.0620 N   0  0  0  0  0  0  0  0  0  0  0  0
   13.2210   13.8500    9.7620 C   0  0  2  0  0  0  0  0  0  0  0  0
   14.3120   14.9220    9.8310 C   0  0  0  0  0  0  0  0  0  0  0  0
   14.2180   15.8770   10.6120 O   0  0  0  0  0  0  0  0  0  0  0  0
   12.0440   14.3700    8.9210 C   0  0  0  0  0  0  0  0  0  0  0  0
   11.9950   13.7780   11.2790 H   0  0  0  0  0  0  0  0  0  0  0  0
   13.6040   13.0700    9.3320 H   0  0  0  0  0  0  0  0  0  0  0  0
   12.3660   14.6010    8.0360 H   0  0  0  0  0  0  0  0  0  0  0  0
   11.3700   13.6760    8.8580 H   0  0  0  0  0  0  0  0  0  0  0  0
   11.6710   15.1550    9.3530 H   0  0  0  0  0  0  0  0  0  0  0  0
   15.3150   14.7530    8.9860 N   0  0  0  0  0  0  0  0  0  0  0  0
   16.3670   15.7200    8.7470 C   0  0  1  0  0  0  0  0  0  0  0  0
   17.6610   15.3630    9.5450 C   0  0  1  0  0  0  0  0  0  0  0  0
   17.4110   15.4960   11.0420 C   0  0  0  0  0  0  0  0  0  0  0  0
   17.9430   14.0030    9.1990 O   0  0  0  0  0  0  0  0  0  0  0  0
   19.3810   13.3980    9.6760 P   0  0  0  0  0  0  0  0  0  0  0  0
   19.4760   12.0640    8.7850 O   0  0  0  0  0  0  0  0  0  0  0  0
   19.3270   13.0090   11.0940 O   0  0  0  0  0  0  0  0  0  0  0  0
   20.5120   14.4180    9.3270 O   0  0  0  0  0  0  0  0  0  0  0  0
   16.6510   15.7440    7.2560 C   0  0  0  0  0  0  0  0  0  0  0  0
   16.3870   14.7570    6.5340 O   0  0  0  0  0  0  0  0  0  0  0  0
   17.1870   16.8520    6.7720 N   0  0  0  0  0  0  0  0  0  0  0  0
   17.4730   17.0000    5.3520 C   0  0  2  0  0  0  0  0  0  0  0  0
   18.8790   17.4880    5.1020 C   0  0  0  0  0  0  0  0  0  0  0  0
   19.6120   17.9100    6.0110 O   0  0  0  0  0  0  0  0  0  0  0  0
   16.4800   17.9540    4.6520 C   0  0  0  0  0  0  0  0  0  0  0  0
   15.0710   17.4290    4.7350 C   0  0  0  0  0  0  0  0  0  0  0  0
   16.5670   19.3630    5.2670 C   0  0  0  0  0  0  0  0  0  0  0  0
   19.3090   17.5200    3.9470 O   0  0  0  0  0  0  0  0  0  0  0  0
   17.3970   17.5380    7.2470 H   0  0  0  0  0  0  0  0  0  0  0  0
   17.3820   16.1140    4.9690 H   0  0  0  0  0  0  0  0  0  0  0  0
   16.7200   18.0110    3.7130 H   0  0  0  0  0  0  0  0  0  0  0  0
   14.4790   18.0360    4.2620 H   0  0  0  0  0  0  0  0  0  0  0  0
   15.0370   16.5490    4.3280 H   0  0  0  0  0  0  0  0  0  0  0  0
   14.8090   17.3730    5.6670 H   0  0  0  0  0  0  0  0  0  0  0  0
   15.8290   19.8980    4.9350 H   0  0  0  0  0  0  0  0  0  0  0  0
   16.5140   19.2890    6.2330 H   0  0  0  0  0  0  0  0  0  0  0  0
   17.4100   19.7670    5.0120 H   0  0  0  0  0  0  0  0  0  0  0  0
  2  1  1  0
  3  2  1  0
  4  3  2  0
  5  2  1  0
  6  5  1  0
  7  6  2  0
  8  6  1  0
  9  7  1  0
 10  8  2  0
 11 10  1  0
 11  9  2  0
  2 12  1  1
 13  5  1  0
 14  5  1  0
 15  7  1  0
 16  8  1  0
 17  9  1  0
 18 10  1  0
 19 11  1  0
 20  3  1  0
 21 20  1  0
 22 21  1  0
 23 22  2  0
 24 21  1  0
 25 24  1  0
 26 25  1  0
 26 20  1  0
 21 27  1  6
 28 24  1  0
 29 24  1  0
 30 25  1  0
 31 25  1  0
 32 26  1  0
 33 26  1  0
 34 22  1  0
 35 34  1  0
 36 35  1  0
 37 36  2  0
 38 35  1  0
 39 34  1  0
 35 40  1  6
 41 38  1  0
 42 38  1  0
 43 38  1  0
 44 36  1  0
 45 44  1  6
 46 45  1  0
 46 47  1  1
 48 46  1  0
 49 48  1  0
 50 49  1  0
 51 49  1  0
 52 49  1  0
 53 45  1  0
 54 53  1  0
 55 53  1  0
 56 55  1  0
 57 56  1  0
 58 57  2  0
 59 56  1  0
 60 59  1  0
 61 59  1  0
 62 57  1  0
 63 55  1  0
 56 64  1  6
 65 59  1  0
 66 60  1  0
 67 60  1  0
 68 60  1  0
 69 61  1  0
 70 61  1  0
 71 61  1  0
M  END
$$$$
5E0X
     RDKit          3D

 69 69  0  0  0  0  0  0  0  0999 V2000
   -0.5070  -17.9210   20.2210 N   0  0  0  0  0  0  0  0  0  0  0  0
   -0.2040  -16.5830   20.7160 C   0  0  2  0  0  0  0  0  0  0  0  0
    0.7790  -15.8710   19.7930 C   0  0  0  0  0  0  0  0  0  0  0  0
    1.9180  -16.3080   19.6270 O   0  0  0  0  0  0  0  0  0  0  0  0
    0.3600  -16.6480   22.1370 C   0  0  0  0  0  0  0  0  0  0  0  0
    0.3320  -14.7710   19.1950 N   0  0  0  0  0  0  0  0  0  0  0  0
    1.1630  -14.0140   18.2670 C   0  0  2  0  0  0  0  0  0  0  0  0
    2.3580  -13.3800   18.9740 C   0  0  0  0  0  0  0  0  0  0  0  0
    3.4860  -13.4560   18.4850 O   0  0  0  0  0  0  0  0  0  0  0  0
    0.3520  -12.9140   17.5560 C   0  0  2  0  0  0  0  0  0  0  0  0
   -0.7860  -13.5360   16.7450 C   0  0  0  0  0  0  0  0  0  0  0  0
    1.2520  -12.0810   16.6550 C   0  0  0  0  0  0  0  0  0  0  0  0
   -1.5870  -12.5320   15.9480 C   0  0  0  0  0  0  0  0  0  0  0  0
    2.1010  -12.7650   20.1260 N   0  0  0  0  0  0  0  0  0  0  0  0
    3.1490  -12.1120   20.9070 C   0  0  2  0  0  0  0  0  0  0  0  0
    4.2800  -13.0740   21.2580 C   0  0  0  0  0  0  0  0  0  0  0  0
    5.4550  -12.7140   21.1900 O   0  0  0  0  0  0  0  0  0  0  0  0
    2.5660  -11.5120   22.1870 C   0  0  0  0  0  0  0  0  0  0  0  0
    3.5820  -10.9330   23.1750 C   0  0  0  0  0  0  0  0  0  0  0  0
    4.3520   -9.7810   22.5500 C   0  0  0  0  0  0  0  0  0  0  0  0
    2.8990  -10.4890   24.4550 C   0  0  0  0  0  0  0  0  0  0  0  0
    3.9160  -14.2990   21.6260 N   0  0  0  0  0  0  0  0  0  0  0  0
    4.8980  -15.3160   21.9800 C   0  0  2  0  0  0  0  0  0  0  0  0
    5.7150  -15.7140   20.7570 C   0  0  0  0  0  0  0  0  0  0  0  0
    6.9010  -16.0130   20.8660 O   0  0  0  0  0  0  0  0  0  0  0  0
    4.2090  -16.5450   22.5850 C   0  0  0  0  0  0  0  0  0  0  0  0
    5.1610  -17.5680   23.1310 C   0  0  0  0  0  0  0  0  0  0  0  0
    5.7980  -18.4910   22.3330 N   0  0  0  0  0  0  0  0  0  0  0  0
    5.5790  -17.8110   24.3960 C   0  0  0  0  0  0  0  0  0  0  0  0
    6.5770  -19.2560   23.0800 C   0  0  0  0  0  0  0  0  0  0  0  0
    6.4590  -18.8660   24.3350 N   0  0  0  0  0  0  0  0  0  0  0  0
    5.0740  -15.7130   19.5920 N   0  0  0  0  0  0  0  0  0  0  0  0
    5.7440  -16.0690   18.3460 C   0  0  2  0  0  0  0  0  0  0  0  0
    6.6980  -14.9710   17.8830 C   0  0  0  0  0  0  0  0  0  0  0  0
    7.8230  -15.2520   17.4730 O   0  0  0  0  0  0  0  0  0  0  0  0
    4.7170  -16.3630   17.2520 C   0  0  0  0  0  0  0  0  0  0  0  0
    6.2450  -13.7230   17.9460 N   0  0  0  0  0  0  0  0  0  0  0  0
    7.0680  -12.5940   17.5290 C   0  0  2  0  0  0  0  0  0  0  0  0
    8.2700  -12.4190   18.4510 C   0  0  0  0  0  0  0  0  0  0  0  0
    9.3210  -11.9370   18.0310 O   0  0  0  0  0  0  0  0  0  0  0  0
    6.2380  -11.3110   17.4890 C   0  0  0  0  0  0  0  0  0  0  0  0
    5.0640  -11.3280   16.5080 C   0  0  0  0  0  0  0  0  0  0  0  0
    4.4080   -9.9590   16.4140 C   0  0  0  0  0  0  0  0  0  0  0  0
    5.5170  -11.8030   15.1360 C   0  0  0  0  0  0  0  0  0  0  0  0
    8.1090  -12.8140   19.7100 N   0  0  0  0  0  0  0  0  0  0  0  0
    9.2130  -12.7900   20.6600 C   0  0  2  0  0  0  0  0  0  0  0  0
   10.2180  -13.8930   20.3410 C   0  0  0  0  0  0  0  0  0  0  0  0
   11.4130  -13.7460   20.5920 O   0  0  0  0  0  0  0  0  0  0  0  0
    8.6990  -12.9360   22.0950 C   0  0  0  0  0  0  0  0  0  0  0  0
    8.0980  -11.6850   22.7440 C   0  0  0  0  0  0  0  0  0  0  0  0
    7.4290  -12.0300   24.0650 C   0  0  0  0  0  0  0  0  0  0  0  0
    9.1670  -10.6240   22.9520 C   0  0  0  0  0  0  0  0  0  0  0  0
    9.7250  -14.9950   19.7820 N   0  0  0  0  0  0  0  0  0  0  0  0
   10.5830  -16.1080   19.3870 C   0  0  2  0  0  0  0  0  0  0  0  0
   11.4620  -15.7430   18.1950 C   0  0  0  0  0  0  0  0  0  0  0  0
   12.5790  -16.2450   18.0630 O   0  0  0  0  0  0  0  0  0  0  0  0
    9.7480  -17.3460   19.0520 C   0  0  0  0  0  0  0  0  0  0  0  0
    9.2950  -18.1420   20.2610 C   0  0  0  0  0  0  0  0  0  0  0  0
    8.5920  -19.4310   19.8790 C   0  0  0  0  0  0  0  0  0  0  0  0
    7.9500  -19.5150   18.8320 O   0  0  0  0  0  0  0  0  0  0  0  0
    8.7150  -20.4450   20.7270 N   0  0  0  0  0  0  0  0  0  0  0  0
   10.9490  -14.8760   17.3280 N   0  0  0  0  0  0  0  0  0  0  0  0
   11.6950  -14.4300   16.1550 C   0  0  2  0  0  0  0  0  0  0  0  0
   12.9550  -13.6690   16.5530 C   0  0  0  0  0  0  0  0  0  0  0  0
   13.8160  -13.4010   15.7160 O   0  0  0  0  0  0  0  0  0  0  0  0
   10.8190  -13.5510   15.2590 C   0  0  0  0  0  0  0  0  0  0  0  0
    9.8620  -14.3580   14.4040 C   0  0  0  0  0  0  0  0  0  0  0  0
    8.7430  -14.6510   14.8750 O   0  0  0  0  0  0  0  0  0  0  0  0
   10.2280  -14.6950   13.2580 O   0  0  0  0  0  0  0  0  0  0  0  0
  2  1  1  0
  3  2  1  0
  4  3  2  0
  2  5  1  1
  6  3  1  0
  7  6  1  1
  8  7  1  0
  9  8  2  0
 10  7  1  0
 11 10  1  0
 10 12  1  6
 13 11  1  0
 14  8  1  0
 15 14  1  0
 16 15  1  0
 17 16  2  0
 15 18  1  1
 19 18  1  0
 20 19  1  0
 21 19  1  0
 22 16  1  0
 23 22  1  0
 24 23  1  0
 25 24  2  0
 23 26  1  6
 27 26  1  0
 28 27  1  0
 29 27  2  0
 30 28  2  0
 31 30  1  0
 31 29  1  0
 32 24  1  0
 33 32  1  0
 34 33  1  0
 35 34  2  0
 33 36  1  6
 37 34  1  0
 38 37  1  0
 39 38  1  0
 40 39  2  0
 38 41  1  1
 42 41  1  0
 43 42  1  0
 44 42  1  0
 45 39  1  0
 46 45  1  0
 47 46  1  0
 48 47  2  0
 46 49  1  1
 50 49  1  0
 51 50  1  0
 52 50  1  0
 53 47  1  0
 54 53  1  0
 55 54  1  0
 56 55  2  0
 54 57  1  6
 58 57  1  0
 59 58  1  0
 60 59  2  0
 61 59  1  0
 62 55  1  0
 63 62  1  0
 64 63  1  0
 65 64  2  0
 63 66  1  6
 67 66  1  0
 68 67  2  0
 69 67  1  0
M  END
$$$$
5EI1
     RDKit          3D

 69 69  0  0  0  0  0  0  0  0999 V2000
   -7.0230  -41.0430  -33.9390 N   0  0  0  0  0  0  0  0  0  0  0  0
   -6.6130  -39.7300  -33.4540 C   0  0  2  0  0  0  0  0  0  0  0  0
   -5.6520  -39.0610  -34.4300 C   0  0  0  0  0  0  0  0  0  0  0  0
   -4.5080  -39.4900  -34.5800 O   0  0  0  0  0  0  0  0  0  0  0  0
   -5.9650  -39.8450  -32.0730 C   0  0  0  0  0  0  0  0  0  0  0  0
   -6.1240  -38.0100  -35.0910 N   0  0  0  0  0  0  0  0  0  0  0  0
   -5.3140  -37.2800  -36.0610 C   0  0  2  0  0  0  0  0  0  0  0  0
   -4.0840  -36.6690  -35.4000 C   0  0  0  0  0  0  0  0  0  0  0  0
   -2.9900  -36.6840  -35.9660 O   0  0  0  0  0  0  0  0  0  0  0  0
   -6.1270  -36.1670  -36.7440 C   0  0  2  0  0  0  0  0  0  0  0  0
   -7.4190  -36.7390  -37.3270 C   0  0  0  0  0  0  0  0  0  0  0  0
   -5.3020  -35.4900  -37.8280 C   0  0  0  0  0  0  0  0  0  0  0  0
   -8.2620  -35.7210  -38.0500 C   0  0  0  0  0  0  0  0  0  0  0  0
   -4.2750  -36.1450  -34.1940 N   0  0  0  0  0  0  0  0  0  0  0  0
   -3.2000  -35.5220  -33.4320 C   0  0  2  0  0  0  0  0  0  0  0  0
   -2.0750  -36.5070  -33.1400 C   0  0  0  0  0  0  0  0  0  0  0  0
   -0.8980  -36.1460  -33.1530 O   0  0  0  0  0  0  0  0  0  0  0  0
   -3.7480  -34.9490  -32.1260 C   0  0  0  0  0  0  0  0  0  0  0  0
   -2.7520  -34.3020  -31.1670 C   0  0  0  0  0  0  0  0  0  0  0  0
   -2.0540  -33.1420  -31.8400 C   0  0  0  0  0  0  0  0  0  0  0  0
   -3.4570  -33.8390  -29.9010 C   0  0  0  0  0  0  0  0  0  0  0  0
   -2.4530  -37.7530  -32.8800 N   0  0  0  0  0  0  0  0  0  0  0  0
   -1.4990  -38.8150  -32.5840 C   0  0  2  0  0  0  0  0  0  0  0  0
   -0.5490  -39.0510  -33.7520 C   0  0  0  0  0  0  0  0  0  0  0  0
    0.6700  -39.0050  -33.5940 O   0  0  0  0  0  0  0  0  0  0  0  0
   -2.2420  -40.1090  -32.2420 C   0  0  0  0  0  0  0  0  0  0  0  0
   -1.3630  -41.1870  -31.6900 C   0  0  0  0  0  0  0  0  0  0  0  0
   -1.5080  -41.6810  -30.4110 N   0  0  0  0  0  0  0  0  0  0  0  0
   -0.3310  -41.8690  -32.2420 C   0  0  0  0  0  0  0  0  0  0  0  0
   -0.6060  -42.6220  -30.2000 C   0  0  0  0  0  0  0  0  0  0  0  0
    0.1220  -42.7550  -31.2950 N   0  0  0  0  0  0  0  0  0  0  0  0
   -1.1190  -39.3090  -34.9240 N   0  0  0  0  0  0  0  0  0  0  0  0
   -0.3330  -39.5730  -36.1210 C   0  0  2  0  0  0  0  0  0  0  0  0
    0.4330  -38.3300  -36.5560 C   0  0  0  0  0  0  0  0  0  0  0  0
    1.5410  -38.4220  -37.0800 O   0  0  0  0  0  0  0  0  0  0  0  0
   -1.2340  -40.0630  -37.2560 C   0  0  0  0  0  0  0  0  0  0  0  0
   -0.1650  -37.1650  -36.3270 N   0  0  0  0  0  0  0  0  0  0  0  0
    0.4490  -35.9030  -36.7160 C   0  0  2  0  0  0  0  0  0  0  0  0
    1.6670  -35.5990  -35.8480 C   0  0  0  0  0  0  0  0  0  0  0  0
    2.5810  -34.8910  -36.2690 O   0  0  0  0  0  0  0  0  0  0  0  0
   -0.5690  -34.7670  -36.6250 C   0  0  0  0  0  0  0  0  0  0  0  0
   -0.3210  -33.5500  -37.5130 C   0  0  0  0  0  0  0  0  0  0  0  0
   -0.0640  -33.9840  -38.9440 C   0  0  0  0  0  0  0  0  0  0  0  0
   -1.5120  -32.6100  -37.4450 C   0  0  0  0  0  0  0  0  0  0  0  0
    1.6730  -36.1390  -34.6350 N   0  0  0  0  0  0  0  0  0  0  0  0
    2.8220  -36.0130  -33.7470 C   0  0  2  0  0  0  0  0  0  0  0  0
    3.8450  -37.1090  -34.0310 C   0  0  0  0  0  0  0  0  0  0  0  0
    4.9600  -37.0780  -33.5130 O   0  0  0  0  0  0  0  0  0  0  0  0
    2.3800  -36.0700  -32.2810 C   0  0  0  0  0  0  0  0  0  0  0  0
    1.7700  -34.8010  -31.6830 C   0  0  0  0  0  0  0  0  0  0  0  0
    1.0310  -35.1080  -30.3890 C   0  0  0  0  0  0  0  0  0  0  0  0
    2.8470  -33.7560  -31.4400 C   0  0  0  0  0  0  0  0  0  0  0  0
    3.4580  -38.0730  -34.8610 N   0  0  0  0  0  0  0  0  0  0  0  0
    4.2980  -39.2350  -35.1410 C   0  0  2  0  0  0  0  0  0  0  0  0
    5.2310  -39.0530  -36.3370 C   0  0  0  0  0  0  0  0  0  0  0  0
    6.2850  -39.6870  -36.3980 O   0  0  0  0  0  0  0  0  0  0  0  0
    3.4290  -40.4720  -35.3810 C   0  0  0  0  0  0  0  0  0  0  0  0
    3.0410  -41.2250  -34.1280 C   0  0  0  0  0  0  0  0  0  0  0  0
    2.3890  -42.5580  -34.4380 C   0  0  0  0  0  0  0  0  0  0  0  0
    1.7460  -42.7210  -35.4760 O   0  0  0  0  0  0  0  0  0  0  0  0
    2.5600  -43.5240  -33.5430 N   0  0  0  0  0  0  0  0  0  0  0  0
    4.8350  -38.1970  -37.2780 N   0  0  0  0  0  0  0  0  0  0  0  0
    5.5280  -38.0480  -38.5610 C   0  0  2  0  0  0  0  0  0  0  0  0
    7.0420  -37.8880  -38.4320 C   0  0  0  0  0  0  0  0  0  0  0  0
    7.8080  -38.5750  -39.1120 O   0  0  0  0  0  0  0  0  0  0  0  0
    4.9630  -36.8510  -39.3250 C   0  0  0  0  0  0  0  0  0  0  0  0
    5.2560  -35.5320  -38.6370 C   0  0  0  0  0  0  0  0  0  0  0  0
    5.1510  -35.4720  -37.3940 O   0  0  0  0  0  0  0  0  0  0  0  0
    5.5990  -34.5550  -39.3350 O   0  0  0  0  0  0  0  0  0  0  0  0
  2  1  1  0
  3  2  1  0
  4  3  2  0
  2  5  1  1
  6  3  1  0
  7  6  1  1
  8  7  1  0
  9  8  2  0
 10  7  1  0
 11 10  1  0
 10 12  1  6
 13 11  1  0
 14  8  1  0
 15 14  1  0
 16 15  1  0
 17 16  2  0
 15 18  1  1
 19 18  1  0
 20 19  1  0
 21 19  1  0
 22 16  1  0
 23 22  1  0
 24 23  1  0
 25 24  2  0
 23 26  1  6
 27 26  1  0
 28 27  1  0
 29 27  2  0
 30 28  2  0
 31 30  1  0
 31 29  1  0
 32 24  1  0
 33 32  1  0
 34 33  1  0
 35 34  2  0
 33 36  1  6
 37 34  1  0
 38 37  1  0
 39 38  1  0
 40 39  2  0
 38 41  1  1
 42 41  1  0
 43 42  1  0
 44 42  1  0
 45 39  1  0
 46 45  1  0
 47 46  1  0
 48 47  2  0
 46 49  1  1
 50 49  1  0
 51 50  1  0
 52 50  1  0
 53 47  1  0
 54 53  1  0
 55 54  1  0
 56 55  2  0
 54 57  1  6
 58 57  1  0
 59 58  1  0
 60 59  2  0
 61 59  1  0
 62 55  1  0
 63 62  1  0
 64 63  1  0
 65 64  2  0
 63 66  1  1
 67 66  1  0
 68 67  2  0
 69 67  1  0
M  END
$$$$
5KD9
     RDKit          3D

 75 75  0  0  0  0  0  0  0  0999 V2000
   -6.5720  -40.6880  -35.4290 N   0  0  0  0  0  0  0  0  0  0  0  0
   -6.6680  -39.2390  -35.2910 C   0  0  2  0  0  0  0  0  0  0  0  0
   -5.6360  -38.5310  -36.1650 C   0  0  0  0  0  0  0  0  0  0  0  0
   -4.4500  -38.8550  -36.1190 O   0  0  0  0  0  0  0  0  0  0  0  0
   -6.4910  -38.8270  -33.8270 C   0  0  0  0  0  0  0  0  0  0  0  0
   -6.1040  -37.5690  -36.9590 N   0  0  0  0  0  0  0  0  0  0  0  0
   -5.2520  -36.7510  -37.8250 C   0  0  2  0  0  0  0  0  0  0  0  0
   -4.0920  -36.1370  -37.0470 C   0  0  0  0  0  0  0  0  0  0  0  0
   -2.9780  -36.0040  -37.5610 O   0  0  0  0  0  0  0  0  0  0  0  0
   -6.0690  -35.6220  -38.4930 C   0  0  2  0  0  0  0  0  0  0  0  0
   -7.1760  -36.2120  -39.3680 C   0  0  0  0  0  0  0  0  0  0  0  0
   -5.1750  -34.7070  -39.3190 C   0  0  0  0  0  0  0  0  0  0  0  0
   -8.1210  -35.1770  -39.9370 C   0  0  0  0  0  0  0  0  0  0  0  0
   -4.3710  -35.7780  -35.7990 N   0  0  0  0  0  0  0  0  0  0  0  0
   -3.3830  -35.2010  -34.8970 C   0  0  2  0  0  0  0  0  0  0  0  0
   -2.1700  -36.1110  -34.7270 C   0  0  0  0  0  0  0  0  0  0  0  0
   -1.0520  -35.6350  -34.5400 O   0  0  0  0  0  0  0  0  0  0  0  0
   -4.0280  -34.9130  -33.5370 C   0  0  0  0  0  0  0  0  0  0  0  0
   -3.2060  -34.2260  -32.4410 C   0  0  0  0  0  0  0  0  0  0  0  0
   -2.5020  -32.9980  -32.9710 C   0  0  0  0  0  0  0  0  0  0  0  0
   -4.1010  -33.8440  -31.2830 C   0  0  0  0  0  0  0  0  0  0  0  0
   -2.3960  -37.4200  -34.7940 N   0  0  0  0  0  0  0  0  0  0  0  0
   -1.3100  -38.3890  -34.7000 C   0  0  2  0  0  0  0  0  0  0  0  0
   -0.4020  -38.3260  -35.9150 C   0  0  0  0  0  0  0  0  0  0  0  0
    0.8200  -38.2580  -35.7830 O   0  0  0  0  0  0  0  0  0  0  0  0
   -1.8630  -39.8040  -34.5490 C   0  0  0  0  0  0  0  0  0  0  0  0
   -2.3530  -40.1160  -33.1720 C   0  0  0  0  0  0  0  0  0  0  0  0
   -1.5040  -40.2360  -32.0940 N   0  0  0  0  0  0  0  0  0  0  0  0
   -3.6000  -40.3370  -32.6950 C   0  0  0  0  0  0  0  0  0  0  0  0
   -2.2060  -40.5160  -31.0120 C   0  0  0  0  0  0  0  0  0  0  0  0
   -3.4820  -40.5830  -31.3490 N   0  0  0  0  0  0  0  0  0  0  0  0
   -1.0090  -38.3610  -37.0970 N   0  0  0  0  0  0  0  0  0  0  0  0
   -0.2610  -38.3270  -38.3480 C   0  0  2  0  0  0  0  0  0  0  0  0
    0.5880  -37.0670  -38.4300 C   0  0  0  0  0  0  0  0  0  0  0  0
    1.7280  -37.1050  -38.8850 O   0  0  0  0  0  0  0  0  0  0  0  0
   -1.2070  -38.4060  -39.5480 C   0  0  0  0  0  0  0  0  0  0  0  0
   -0.4970  -38.4220  -40.8910 C   0  0  0  0  0  0  0  0  0  0  0  0
   -1.4730  -38.6120  -42.0380 C   0  0  0  0  0  0  0  0  0  0  0  0
   -2.2690  -37.4160  -42.2930 N   0  0  0  0  0  0  0  0  0  0  0  0
   -3.5830  -37.4250  -42.4910 C   0  0  0  0  0  0  0  0  0  0  0  0
   -4.2490  -38.5710  -42.4570 N   0  0  0  0  0  0  0  0  0  0  0  0
   -4.2300  -36.2910  -42.7220 N   0  0  0  0  0  0  0  0  0  0  0  0
    0.0310  -35.9520  -37.9710 N   0  0  0  0  0  0  0  0  0  0  0  0
    0.7410  -34.6850  -38.0060 C   0  0  2  0  0  0  0  0  0  0  0  0
    1.8350  -34.6370  -36.9430 C   0  0  0  0  0  0  0  0  0  0  0  0
    2.9080  -34.0790  -37.1690 O   0  0  0  0  0  0  0  0  0  0  0  0
   -0.2420  -33.5250  -37.8340 C   0  0  0  0  0  0  0  0  0  0  0  0
   -1.1470  -33.3450  -39.0550 C   0  0  0  0  0  0  0  0  0  0  0  0
   -2.2170  -32.2970  -38.8160 C   0  0  0  0  0  0  0  0  0  0  0  0
   -0.3100  -32.9840  -40.2770 C   0  0  0  0  0  0  0  0  0  0  0  0
    1.5660  -35.2280  -35.7850 N   0  0  0  0  0  0  0  0  0  0  0  0
    2.5630  -35.2790  -34.7220 C   0  0  2  0  0  0  0  0  0  0  0  0
    3.6860  -36.2460  -35.0710 C   0  0  0  0  0  0  0  0  0  0  0  0
    4.8450  -36.0020  -34.7460 O   0  0  0  0  0  0  0  0  0  0  0  0
    1.9230  -35.6830  -33.3950 C   0  0  0  0  0  0  0  0  0  0  0  0
    1.3270  -34.5350  -32.5730 C   0  0  0  0  0  0  0  0  0  0  0  0
    0.4610  -35.0700  -31.4380 C   0  0  0  0  0  0  0  0  0  0  0  0
    2.4310  -33.6470  -32.0290 C   0  0  0  0  0  0  0  0  0  0  0  0
    3.3360  -37.3430  -35.7340 N   0  0  0  0  0  0  0  0  0  0  0  0
    4.3100  -38.3830  -36.0500 C   0  0  2  0  0  0  0  0  0  0  0  0
    5.0990  -38.1120  -37.3310 C   0  0  0  0  0  0  0  0  0  0  0  0
    6.2140  -38.6070  -37.4830 O   0  0  0  0  0  0  0  0  0  0  0  0
    3.6160  -39.7420  -36.1600 C   0  0  0  0  0  0  0  0  0  0  0  0
    3.1880  -40.3290  -34.8250 C   0  0  0  0  0  0  0  0  0  0  0  0
    2.5960  -41.7160  -34.9650 C   0  0  0  0  0  0  0  0  0  0  0  0
    1.7520  -41.9580  -35.8280 O   0  0  0  0  0  0  0  0  0  0  0  0
    3.0430  -42.6390  -34.1220 N   0  0  0  0  0  0  0  0  0  0  0  0
    4.5240  -37.3360  -38.2460 N   0  0  0  0  0  0  0  0  0  0  0  0
    5.1680  -37.0650  -39.5330 C   0  0  2  0  0  0  0  0  0  0  0  0
    6.5380  -36.4150  -39.3610 C   0  0  0  0  0  0  0  0  0  0  0  0
    7.5590  -36.9980  -39.7280 O   0  0  0  0  0  0  0  0  0  0  0  0
    4.2820  -36.1740  -40.4070 C   0  0  0  0  0  0  0  0  0  0  0  0
    4.9010  -35.8870  -41.7650 C   0  0  0  0  0  0  0  0  0  0  0  0
    5.6570  -34.8980  -41.8800 O   0  0  0  0  0  0  0  0  0  0  0  0
    4.6320  -36.6490  -42.7170 O   0  0  0  0  0  0  0  0  0  0  0  0
  2  1  1  0
  3  2  1  0
  4  3  2  0
  2  5  1  1
  6  3  1  0
  7  6  1  1
  8  7  1  0
  9  8  2  0
 10  7  1  0
 11 10  1  0
 10 12  1  6
 13 11  1  0
 14  8  1  0
 15 14  1  0
 16 15  1  0
 17 16  2  0
 15 18  1  1
 19 18  1  0
 20 19  1  0
 21 19  1  0
 22 16  1  0
 23 22  1  0
 24 23  1  0
 25 24  2  0
 23 26  1  6
 27 26  1  0
 28 27  1  0
 29 27  2  0
 30 28  2  0
 31 30  1  0
 31 29  1  0
 32 24  1  0
 33 32  1  0
 34 33  1  0
 35 34  2  0
 33 36  1  6
 37 36  1  0
 38 37  1  0
 39 38  1  0
 40 39  1  0
 41 40  1  0
 42 40  2  0
 43 34  1  0
 44 43  1  0
 45 44  1  0
 46 45  2  0
 44 47  1  1
 48 47  1  0
 49 48  1  0
 50 48  1  0
 51 45  1  0
 52 51  1  0
 53 52  1  0
 54 53  2  0
 52 55  1  1
 56 55  1  0
 57 56  1  0
 58 56  1  0
 59 53  1  0
 60 59  1  0
 61 60  1  0
 62 61  2  0
 60 63  1  6
 64 63  1  0
 65 64  1  0
 66 65  2  0
 67 65  1  0
 68 61  1  0
 69 68  1  0
 70 69  1  0
 71 70  2  0
 69 72  1  6
 73 72  1  0
 74 73  2  0
 75 73  1  0
M  END
$$$$
4ZN9
     RDKit          3D

 31 35  0  0  0  0  0  0  0  0999 V2000
   -3.1460   -3.9970   22.7400 C   0  0  0  0  0  0  0  0  0  0  0  0
   -2.4150   -3.4620   23.7740 C   0  0  0  0  0  0  0  0  0  0  0  0
   -3.1020   -2.9140   24.8170 C   0  0  0  0  0  0  0  0  0  0  0  0
   -2.4740   -2.3980   25.8270 O   0  0  0  0  0  0  0  0  0  0  0  0
   -4.4770   -2.9370   24.8150 C   0  0  0  0  0  0  0  0  0  0  0  0
   -5.1730   -3.4640   23.7670 C   0  0  0  0  0  0  0  0  0  0  0  0
   -4.5250   -4.0060   22.6920 C   0  0  0  0  0  0  0  0  0  0  0  0
   -5.1890   -4.5850   21.6030 C   0  0  0  0  0  0  0  0  0  0  0  0
   -6.3560   -4.2960   20.8870 C   0  0  1  0  0  0  0  0  0  0  0  0
   -7.2580   -3.2830   20.8940 C   0  0  2  0  0  0  0  0  0  0  0  0
   -8.5870   -3.5570   20.7350 C   0  0  0  0  0  0  0  0  0  0  0  0
   -9.4780   -2.5340   20.6920 C   0  0  0  0  0  0  0  0  0  0  0  0
   -9.0240   -1.2520   20.7730 C   0  0  0  0  0  0  0  0  0  0  0  0
   -9.8540   -0.2210   20.7360 O   0  0  0  0  0  0  0  0  0  0  0  0
   -7.6930   -0.9950   20.9070 C   0  0  0  0  0  0  0  0  0  0  0  0
   -6.8060   -2.0100   20.9660 C   0  0  0  0  0  0  0  0  0  0  0  0
   -6.4590   -5.2690   19.7670 C   0  0  2  0  0  0  0  0  0  0  0  0
   -5.8960   -6.3040   20.3310 O   0  0  0  0  0  0  0  0  0  0  0  0
   -4.7420   -5.8030   20.7710 C   0  0  1  0  0  0  0  0  0  0  0  0
   -4.1990   -5.4520   19.4250 C   0  0  0  0  0  0  0  0  0  0  0  0
   -5.4080   -4.7750   18.7870 C   0  0  1  0  0  0  0  0  0  0  0  0
   -5.6700   -5.1970   17.0640 S   0  0  1  0  0  0  0  0  0  0  0  0
   -4.7370   -4.5090   16.3210 O   0  0  0  0  0  0  0  0  0  0  0  0
   -5.4810   -6.5380   16.8540 O   0  0  0  0  0  0  0  0  0  0  0  0
   -6.8200   -4.7300   16.6330 O   0  0  0  0  0  0  0  0  0  0  0  0
   -7.7390   -5.3860   15.8770 C   0  0  0  0  0  0  0  0  0  0  0  0
   -9.0560   -5.3020   16.2580 C   0  0  0  0  0  0  0  0  0  0  0  0
  -10.0680   -5.8990   15.5520 C   0  0  0  0  0  0  0  0  0  0  0  0
   -9.7780   -6.6230   14.4150 C   0  0  0  0  0  0  0  0  0  0  0  0
   -8.4560   -6.7190   14.0100 C   0  0  0  0  0  0  0  0  0  0  0  0
   -7.4580   -6.0830   14.7260 C   0  0  0  0  0  0  0  0  0  0  0  0
  2  1  1  0
  3  2  1  0
  4  3  1  0
  5  3  1  0
  6  5  1  0
  7  6  1  0
  7  1  1  0
  8  7  1  0
  9  8  1  6
 10  9  1  0
 10 11  1  6
 12 11  1  0
 13 12  1  0
 14 13  1  0
 15 13  1  0
 16 15  1  0
 16 10  1  0
 17  9  1  0
 17 18  1  1
 19 18  1  0
 19  8  1  0
 19 20  1  6
 21 17  1  0
 21 20  1  1
 22 21  1  0
 22 23  1  6
 24 22  1  0
 25 22  1  0
 26 25  1  0
 27 26  1  0
 28 27  1  0
 29 28  1  0
 30 29  1  0
 31 30  1  0
 31 26  1  0
M  END
$$$$
3CBP
     RDKit          3D

 31 30  0  0  0  0  0  0  0  0999 V2000
   14.8440   -8.3920   26.8360 N   0  0  0  0  0  0  0  0  0  0  0  0
   13.7840   -9.1530   26.1120 C   0  0  2  0  0  0  0  0  0  0  0  0
   13.0630   -8.2680   25.1000 C   0  0  0  0  0  0  0  0  0  0  0  0
   12.5220   -8.7600   24.1100 O   0  0  0  0  0  0  0  0  0  0  0  0
   12.7810   -9.7290   27.1090 C   0  0  0  0  0  0  0  0  0  0  0  0
   13.0560   -6.9620   25.3530 N   0  0  0  0  0  0  0  0  0  0  0  0
   12.4000   -6.0150   24.4590 C   0  0  2  0  0  0  0  0  0  0  0  0
   13.4060   -5.0380   23.8690 C   0  0  0  0  0  0  0  0  0  0  0  0
   13.2480   -3.8180   23.9520 O   0  0  0  0  0  0  0  0  0  0  0  0
   11.2990   -5.2610   25.2040 C   0  0  0  0  0  0  0  0  0  0  0  0
   10.2330   -6.1860   25.7520 C   0  0  0  0  0  0  0  0  0  0  0  0
    8.9690   -5.4450   26.1290 C   0  0  0  0  0  0  0  0  0  0  0  0
    7.8970   -6.3790   26.4590 N   0  0  0  0  0  0  0  0  0  0  0  0
    6.6400   -6.0220   26.6970 C   0  0  0  0  0  0  0  0  0  0  0  0
    6.2880   -4.7450   26.6440 N   0  0  0  0  0  0  0  0  0  0  0  0
    5.7310   -6.9450   26.9850 N   0  0  0  0  0  0  0  0  0  0  0  0
   14.4460   -5.5980   23.2690 N   0  0  0  0  0  0  0  0  0  0  0  0
   15.5000   -4.8150   22.6530 C   0  0  2  0  0  0  0  0  0  0  0  0
   16.2120   -5.7140   21.6570 C   0  0  0  0  0  0  0  0  0  0  0  0
   16.2440   -6.9370   21.8230 O   0  0  0  0  0  0  0  0  0  0  0  0
   16.4810   -4.3180   23.7190 C   0  0  0  0  0  0  0  0  0  0  0  0
   16.9680   -5.3910   24.5070 O   0  0  0  0  0  0  0  0  0  0  0  0
   16.7710   -5.1130   20.6150 N   0  0  0  0  0  0  0  0  0  0  0  0
   17.4720   -5.8870   19.6040 C   0  0  2  0  0  0  0  0  0  0  0  0
   18.6130   -6.6430   20.2800 C   0  0  0  0  0  0  0  0  0  0  0  0
   19.0650   -6.1780   21.3500 O   0  0  0  0  0  0  0  0  0  0  0  0
   17.9930   -4.9420   18.5220 C   0  0  0  0  0  0  0  0  0  0  0  0
   16.9020   -3.9950   18.0340 C   0  0  0  0  0  0  0  0  0  0  0  0
   17.4320   -2.8120   17.2540 C   0  0  0  0  0  0  0  0  0  0  0  0
   16.3200   -1.7830   17.0720 C   0  0  0  0  0  0  0  0  0  0  0  0
   16.7410   -0.5870   16.2860 N   0  0  0  0  0  0  0  0  0  0  0  0
  2  1  1  0
  3  2  1  0
  4  3  2  0
  2  5  1  1
  6  3  1  0
  7  6  1  0
  8  7  1  0
  9  8  2  0
  7 10  1  1
 11 10  1  0
 12 11  1  0
 13 12  1  0
 14 13  1  0
 15 14  1  0
 16 14  2  0
 17  8  1  0
 18 17  1  0
 19 18  1  0
 20 19  2  0
 18 21  1  1
 22 21  1  0
 23 19  1  0
 24 23  1  0
 25 24  1  0
 26 25  2  0
 24 27  1  6
 28 27  1  0
 29 28  1  0
 30 29  1  0
 31 30  1  0
M  END
$$$$
2YAT
     RDKit          3D

 48 52  0  0  0  0  0  0  0  0999 V2000
  -14.1990    2.0570  -25.6780 C   0  0  0  0  0  0  0  0  0  0  0  0
  -13.6200    1.8730  -24.5940 C   0  0  0  0  0  0  0  0  0  0  0  0
  -12.9440    1.4960  -23.3520 C   0  0  2  0  0  0  0  0  0  0  0  0
  -12.5250    2.6060  -22.5960 O   0  0  0  0  0  0  0  0  0  0  0  0
  -11.7800    0.6640  -23.8200 C   0  0  0  0  0  0  0  0  0  0  0  0
  -12.3240   -0.7460  -23.9650 C   0  0  0  0  0  0  0  0  0  0  0  0
  -13.7060   -0.6880  -23.3900 C   0  0  1  0  0  0  0  0  0  0  0  0
  -14.1910   -1.9000  -22.6550 C   0  0  2  0  0  0  0  0  0  0  0  0
  -14.0750   -3.1250  -23.5370 C   0  0  0  0  0  0  0  0  0  0  0  0
  -14.7570   -4.3620  -23.0340 C   0  0  0  0  0  0  0  0  0  0  0  0
  -13.7310    0.5320  -22.5340 C   0  0  1  0  0  0  0  0  0  0  0  0
  -12.9220    0.3170  -21.2970 C   0  0  0  0  0  0  0  0  0  0  0  0
  -15.1590    0.9060  -22.2000 C   0  0  0  0  0  0  0  0  0  0  0  0
  -15.8160   -0.2920  -21.5240 C   0  0  0  0  0  0  0  0  0  0  0  0
  -15.6320   -1.5590  -22.3670 C   0  0  2  0  0  0  0  0  0  0  0  0
  -16.3890   -2.7270  -21.8980 C   0  0  0  0  0  0  0  0  0  0  0  0
  -17.5410   -2.5330  -21.1390 C   0  0  0  0  0  0  0  0  0  0  0  0
  -15.9780   -4.0870  -22.2260 C   0  0  0  0  0  0  0  0  0  0  0  0
  -16.7620   -5.1420  -21.7480 C   0  0  0  0  0  0  0  0  0  0  0  0
  -17.9170   -4.8930  -20.9750 C   0  0  0  0  0  0  0  0  0  0  0  0
  -18.6540   -5.9210  -20.5320 O   0  0  0  0  0  0  0  0  0  0  0  0
  -18.2930   -3.5920  -20.6810 C   0  0  0  0  0  0  0  0  0  0  0  0
  -15.0350    2.5220  -26.9000 C   0  0  0  0  0  0  0  0  0  0  0  0
  -16.2510    2.6640  -27.4100 C   0  0  0  0  0  0  0  0  0  0  0  0
  -13.9590    2.9350  -27.6900 C   0  0  0  0  0  0  0  0  0  0  0  0
  -16.8480    3.1040  -28.5090 C   0  0  0  0  0  0  0  0  0  0  0  0
  -14.4770    3.4450  -28.9450 C   0  0  0  0  0  0  0  0  0  0  0  0
  -15.8470    3.5310  -29.3450 N   0  0  0  0  0  0  0  0  0  0  0  0
  -18.3080    3.1250  -28.7820 C   0  0  0  0  0  0  0  0  0  0  0  0
  -13.4610    3.9490  -29.9410 C   0  0  0  0  0  0  0  0  0  0  0  0
  -18.4830    4.0210  -29.8710 N   0  0  0  0  0  0  0  0  0  0  0  0
  -14.0110    3.8420  -31.2640 N   0  0  0  0  0  0  0  0  0  0  0  0
  -16.8490    6.6330  -30.4420 O   0  0  0  0  0  0  0  0  0  0  0  0
  -18.9490    5.3140  -32.2120 O   0  0  0  0  0  0  0  0  0  0  0  0
  -15.1230    5.1200  -33.5630 O   0  0  0  0  0  0  0  0  0  0  0  0
  -16.3370    2.2740  -32.7300 O   0  0  0  0  0  0  0  0  0  0  0  0
  -18.7970    5.3600  -29.3130 C   0  0  0  0  0  0  0  0  0  0  0  0
  -19.5110    3.3940  -30.6960 C   0  0  0  0  0  0  0  0  0  0  0  0
  -13.0930    4.5870  -32.1160 C   0  0  0  0  0  0  0  0  0  0  0  0
  -14.0050    2.4120  -31.6180 C   0  0  0  0  0  0  0  0  0  0  0  0
  -17.6320    6.3780  -29.2610 C   0  0  2  0  0  0  0  0  0  0  0  0
  -19.9380    4.4040  -31.7200 C   0  0  1  0  0  0  0  0  0  0  0  0
  -13.7730    5.4730  -33.1450 C   0  0  1  0  0  0  0  0  0  0  0  0
  -14.9430    1.9560  -32.7430 C   0  0  1  0  0  0  0  0  0  0  0  0
  -17.8260    7.4150  -28.5500 O   0  0  0  0  0  0  0  0  0  0  0  0
  -21.1610    4.7490  -31.6890 O   0  0  0  0  0  0  0  0  0  0  0  0
  -13.0150    6.0820  -33.9780 O   0  0  0  0  0  0  0  0  0  0  0  0
  -14.6130    0.9140  -33.4020 O   0  0  0  0  0  0  0  0  0  0  0  0
  2  1  1  0
  3  2  1  0
  3  4  1  1
  5  3  1  0
  6  5  1  0
  7  6  1  1
  8  7  1  0
  8  9  1  6
 10  9  1  0
 11  7  1  0
 11  3  1  0
 11 12  1  1
 13 11  1  0
 14 13  1  0
 15  8  1  0
 15 14  1  1
 16 15  1  0
 17 16  1  0
 18 16  1  0
 18 10  1  0
 19 18  1  0
 20 19  1  0
 21 20  1  0
 22 20  1  0
 22 17  1  0
 23  1  1  0
 24 23  1  0
 25 23  1  0
 26 24  1  0
 27 25  1  0
 28 26  1  0
 28 27  1  0
 29 26  1  0
 30 27  1  0
 31 29  1  0
 32 30  1  0
 37 31  1  0
 38 31  1  0
 39 32  1  0
 40 32  1  0
 41 37  1  0
 41 33  1  6
 42 38  1  0
 42 34  1  1
 43 35  1  6
 43 39  1  0
 44 36  1  1
 44 40  1  0
 45 41  1  0
 46 42  1  0
 47 43  1  0
 48 44  1  0
M  END
$$$$
7Y8G
     RDKit          3D

 67 67  0  0  0  0  0  0  0  0999 V2000
   21.0040   11.6800   -1.6630 N   0  0  0  0  0  0  0  0  0  0  0  0
   20.5640   13.0120   -1.2090 C   0  0  2  0  0  0  0  0  0  0  0  0
   19.3500   13.4570   -2.0340 C   0  0  0  0  0  0  0  0  0  0  0  0
   19.4660   14.4120   -2.8300 O   0  0  0  0  0  0  0  0  0  0  0  0
   21.7040   13.9870   -1.3310 C   0  0  0  0  0  0  0  0  0  0  0  0
   18.2210   12.7720   -1.8600 N   0  0  0  0  0  0  0  0  0  0  0  0
   16.9440   13.0920   -2.5610 C   0  0  2  0  0  0  0  0  0  0  0  0
   16.5000   14.4920   -2.1370 C   0  0  0  0  0  0  0  0  0  0  0  0
   16.0800   15.2620   -2.9950 O   0  0  0  0  0  0  0  0  0  0  0  0
   15.8800   12.0100   -2.2770 C   0  0  2  0  0  0  0  0  0  0  0  0
   16.2960   10.6620   -2.8850 C   0  0  0  0  0  0  0  0  0  0  0  0
   14.5120   12.4660   -2.7840 C   0  0  0  0  0  0  0  0  0  0  0  0
   16.2570    9.4910   -1.9350 C   0  0  0  0  0  0  0  0  0  0  0  0
   16.6630   14.8110   -0.8600 N   0  0  0  0  0  0  0  0  0  0  0  0
   16.1450   16.0550   -0.2490 C   0  0  2  0  0  0  0  0  0  0  0  0
   16.9060   17.2350   -0.8530 C   0  0  0  0  0  0  0  0  0  0  0  0
   16.2710   18.2080   -1.2090 O   0  0  0  0  0  0  0  0  0  0  0  0
   16.3310   15.9560    1.2650 C   0  0  0  0  0  0  0  0  0  0  0  0
   15.4790   16.8780    2.1280 C   0  0  0  0  0  0  0  0  0  0  0  0
   14.0780   17.0340    1.5830 C   0  0  0  0  0  0  0  0  0  0  0  0
   15.4290   16.3520    3.5460 C   0  0  0  0  0  0  0  0  0  0  0  0
   18.2310   17.1380   -0.9680 N   0  0  0  0  0  0  0  0  0  0  0  0
   19.0570   18.1400   -1.6880 C   0  0  2  0  0  0  0  0  0  0  0  0
   18.4620   18.3870   -3.0700 C   0  0  0  0  0  0  0  0  0  0  0  0
   18.2460   19.5630   -3.4080 O   0  0  0  0  0  0  0  0  0  0  0  0
   20.5200   17.7200   -1.7820 C   0  0  0  0  0  0  0  0  0  0  0  0
   21.2850   17.9150   -0.5220 C   0  0  0  0  0  0  0  0  0  0  0  0
   21.3200   16.9490    0.4720 N   0  0  0  0  0  0  0  0  0  0  0  0
   22.0530   18.9450   -0.1040 C   0  0  0  0  0  0  0  0  0  0  0  0
   22.1000   17.3680    1.4470 C   0  0  0  0  0  0  0  0  0  0  0  0
   22.5660   18.5990    1.1110 N   0  0  0  0  0  0  0  0  0  0  0  0
   18.1590   17.3360   -3.8170 N   0  0  0  0  0  0  0  0  0  0  0  0
   17.7170   17.4920   -5.2310 C   0  0  2  0  0  0  0  0  0  0  0  0
   16.3100   18.1030   -5.2710 C   0  0  0  0  0  0  0  0  0  0  0  0
   16.0740   18.9770   -6.1310 O   0  0  0  0  0  0  0  0  0  0  0  0
   17.8020   16.1550   -5.9570 C   0  0  0  0  0  0  0  0  0  0  0  0
   19.2350   15.6600   -6.1010 C   0  0  0  0  0  0  0  0  0  0  0  0
   19.2920   14.1540   -6.2820 C   0  0  0  0  0  0  0  0  0  0  0  0
   20.5590   13.6800   -6.8240 N   0  0  0  0  0  0  0  0  0  0  0  0
   21.6890   13.5450   -6.1410 C   0  0  0  0  0  0  0  0  0  0  0  0
   21.7480   13.8700   -4.8590 N   0  0  0  0  0  0  0  0  0  0  0  0
   22.7700   13.0860   -6.7470 N   0  0  0  0  0  0  0  0  0  0  0  0
   15.4250   17.6850   -4.3570 N   0  0  0  0  0  0  0  0  0  0  0  0
   14.0280   18.1940   -4.2800 C   0  0  2  0  0  0  0  0  0  0  0  0
   14.0350   19.6360   -3.7700 C   0  0  0  0  0  0  0  0  0  0  0  0
   13.2070   20.4210   -4.2520 O   0  0  0  0  0  0  0  0  0  0  0  0
   13.1870   17.2720   -3.3950 C   0  0  0  0  0  0  0  0  0  0  0  0
   13.0460   15.8390   -3.9090 C   0  0  0  0  0  0  0  0  0  0  0  0
   12.2080   15.0050   -2.9570 C   0  0  0  0  0  0  0  0  0  0  0  0
   12.4520   15.8160   -5.3130 C   0  0  0  0  0  0  0  0  0  0  0  0
   14.9930   20.0200   -2.9230 N   0  0  0  0  0  0  0  0  0  0  0  0
   14.9660   21.3810   -2.3290 C   0  0  2  0  0  0  0  0  0  0  0  0
   15.5880   22.3820   -3.2900 C   0  0  0  0  0  0  0  0  0  0  0  0
   15.1960   23.5630   -3.2280 O   0  0  0  0  0  0  0  0  0  0  0  0
   15.6680   21.4140   -0.9760 C   0  0  0  0  0  0  0  0  0  0  0  0
   14.7590   21.0750    0.1970 C   0  0  0  0  0  0  0  0  0  0  0  0
   15.5870   20.9300    1.4580 C   0  0  0  0  0  0  0  0  0  0  0  0
   13.6550   22.1110    0.3720 C   0  0  0  0  0  0  0  0  0  0  0  0
   16.4900   21.9310   -4.1540 N   0  0  0  0  0  0  0  0  0  0  0  0
   17.1530   22.8250   -5.1340 C   0  0  2  0  0  0  0  0  0  0  0  0
   16.0950   23.3600   -6.1000 C   0  0  0  0  0  0  0  0  0  0  0  0
   16.1020   24.5820   -6.1200 O   0  0  0  0  0  0  0  0  0  0  0  0
   18.2640   22.1140   -5.9020 C   0  0  0  0  0  0  0  0  0  0  0  0
   19.2930   23.0940   -6.4490 C   0  0  0  0  0  0  0  0  0  0  0  0
   20.1060   22.4910   -7.5670 C   0  0  0  0  0  0  0  0  0  0  0  0
   19.7630   21.4260   -8.1010 O   0  0  0  0  0  0  0  0  0  0  0  0
   21.2000   23.1610   -7.9100 N   0  0  0  0  0  0  0  0  0  0  0  0
  2  1  1  0
  3  2  1  0
  4  3  2  0
  2  5  1  6
  6  3  1  0
  7  6  1  1
  8  7  1  0
  9  8  2  0
 10  7  1  0
 11 10  1  0
 10 12  1  6
 13 11  1  0
 14  8  1  0
 15 14  1  0
 16 15  1  0
 17 16  2  0
 15 18  1  1
 19 18  1  0
 20 19  1  0
 21 19  1  0
 22 16  1  0
 23 22  1  0
 24 23  1  0
 25 24  2  0
 23 26  1  6
 27 26  1  0
 28 27  1  0
 29 27  2  0
 30 28  2  0
 31 30  1  0
 31 29  1  0
 32 24  1  0
 33 32  1  0
 34 33  1  0
 35 34  2  0
 33 36  1  1
 37 36  1  0
 38 37  1  0
 39 38  1  0
 40 39  1  0
 41 40  1  0
 42 40  2  0
 43 34  1  0
 44 43  1  0
 45 44  1  0
 46 45  2  0
 44 47  1  1
 48 47  1  0
 49 48  1  0
 50 48  1  0
 51 45  1  0
 52 51  1  0
 53 52  1  0
 54 53  2  0
 52 55  1  1
 56 55  1  0
 57 56  1  0
 58 56  1  0
 59 53  1  0
 60 59  1  0
 61 60  1  0
 62 61  2  0
 60 63  1  6
 64 63  1  0
 65 64  1  0
 66 65  2  0
 67 65  1  0
M  END
$$$$
8AXU
     RDKit          3D

 42 43  0  0  0  0  0  0  0  0999 V2000
   27.1540   -8.1630   14.8230 N   0  0  0  0  0  0  0  0  0  0  0  0
   26.8900   -9.2330   13.8090 C   0  0  2  0  0  0  0  0  0  0  0  0
   27.9850  -10.3010   13.7520 C   0  0  0  0  0  0  0  0  0  0  0  0
   29.0870  -10.0400   13.2760 O   0  0  0  0  0  0  0  0  0  0  0  0
   26.7050   -8.6180   12.3980 C   0  0  0  0  0  0  0  0  0  0  0  0
   25.2620   -8.4760   11.9650 C   0  0  0  0  0  0  0  0  0  0  0  0
   24.4280   -9.5860   11.9220 C   0  0  0  0  0  0  0  0  0  0  0  0
   24.7460   -7.2470   11.5610 C   0  0  0  0  0  0  0  0  0  0  0  0
   23.1060   -9.4860   11.5170 C   0  0  0  0  0  0  0  0  0  0  0  0
   23.4160   -7.1380   11.1530 C   0  0  0  0  0  0  0  0  0  0  0  0
   22.5970   -8.2640   11.1300 C   0  0  0  0  0  0  0  0  0  0  0  0
   27.7340  -11.5300   14.2650 N   0  0  0  0  0  0  0  0  0  0  0  0
   28.3960  -12.7260   13.7500 C   0  0  2  0  0  0  0  0  0  0  0  0
   27.7330  -13.1610   12.4310 C   0  0  0  0  0  0  0  0  0  0  0  0
   26.6140  -12.7600   12.1520 O   0  0  0  0  0  0  0  0  0  0  0  0
   28.1870  -13.7660   14.8490 C   0  0  0  0  0  0  0  0  0  0  0  0
   26.8880  -13.3550   15.4890 C   0  0  0  0  0  0  0  0  0  0  0  0
   26.8430  -11.8390   15.3890 C   0  0  0  0  0  0  0  0  0  0  0  0
   28.4440  -13.9670   11.6480 N   0  0  0  0  0  0  0  0  0  0  0  0
   28.0300  -14.3230   10.3070 C   0  0  2  0  0  0  0  0  0  0  0  0
   26.9250  -15.3490   10.3440 C   0  0  0  0  0  0  0  0  0  0  0  0
   26.9930  -16.2890   11.1020 O   0  0  0  0  0  0  0  0  0  0  0  0
   29.1940  -14.9020    9.5320 C   0  0  0  0  0  0  0  0  0  0  0  0
   25.9270  -15.1400    9.4780 N   0  0  0  0  0  0  0  0  0  0  0  0
   24.8590  -16.1140    9.1410 C   0  0  1  0  0  0  0  0  0  0  0  0
   23.5540  -15.7870    9.8770 C   0  0  1  0  0  0  0  0  0  0  0  0
   23.6900  -15.9430   11.3730 C   0  0  0  0  0  0  0  0  0  0  0  0
   23.2340  -14.3830    9.5730 O   0  0  0  0  0  0  0  0  0  0  0  0
   21.8040  -13.7360    9.9090 P   0  0  0  0  0  0  0  0  0  0  0  0
   21.7850  -12.4880    9.0050 O   0  0  0  0  0  0  0  0  0  0  0  0
   21.8470  -13.3590   11.4010 O   0  0  0  0  0  0  0  0  0  0  0  0
   20.7620  -14.7880    9.5110 O   0  0  0  0  0  0  0  0  0  0  0  0
   24.6850  -16.1090    7.6250 C   0  0  0  0  0  0  0  0  0  0  0  0
   25.1290  -15.1320    6.9870 O   0  0  0  0  0  0  0  0  0  0  0  0
   24.0800  -17.1590    7.0780 N   0  0  0  0  0  0  0  0  0  0  0  0
   23.8170  -17.2390    5.6400 C   0  0  2  0  0  0  0  0  0  0  0  0
   22.3490  -17.5170    5.3000 C   0  0  0  0  0  0  0  0  0  0  0  0
   21.5080  -17.7920    6.1720 O   0  0  0  0  0  0  0  0  0  0  0  0
   24.7100  -18.2940    4.9530 C   0  0  0  0  0  0  0  0  0  0  0  0
   26.1640  -17.8590    5.0060 C   0  0  0  0  0  0  0  0  0  0  0  0
   24.4950  -19.6650    5.5870 C   0  0  0  0  0  0  0  0  0  0  0  0
   21.9750  -17.4500    4.1090 O   0  0  0  0  0  0  0  0  0  0  0  0
  2  1  1  1
  3  2  1  0
  4  3  2  0
  5  2  1  0
  6  5  1  0
  7  6  2  0
  8  6  1  0
  9  7  1  0
 10  8  2  0
 11 10  1  0
 11  9  2  0
 12  3  1  0
 13 12  1  0
 13 14  1  6
 15 14  2  0
 16 13  1  0
 17 16  1  0
 18 17  1  0
 18 12  1  0
 19 14  1  0
 20 19  1  0
 21 20  1  0
 22 21  2  0
 20 23  1  6
 24 21  1  0
 25 24  1  6
 26 25  1  0
 26 27  1  1
 28 26  1  0
 29 28  1  0
 30 29  1  0
 31 29  1  0
 32 29  1  0
 33 25  1  0
 34 33  1  0
 35 33  1  0
 36 35  1  1
 37 36  1  0
 38 37  2  0
 39 36  1  0
 40 39  1  0
 41 39  1  0
 42 37  1  0
M  END
$$$$
5DZ0
     RDKit          3D

 22 24  0  0  0  0  0  0  0  0999 V2000
   16.7530   -0.3470    0.1230 O   0  0  0  0  0  0  0  0  0  0  0  0
   17.4070   -0.7080    1.3340 C   0  0  0  0  0  0  0  0  0  0  0  0
   16.7300   -0.6410    2.5390 C   0  0  0  0  0  0  0  0  0  0  0  0
   17.3830   -0.9970    3.7430 C   0  0  0  0  0  0  0  0  0  0  0  0
   18.7070   -1.4350    3.7460 C   0  0  0  0  0  0  0  0  0  0  0  0
   19.4810   -1.8390    5.0440 C   0  0  2  0  0  0  0  0  0  0  0  0
   20.9580   -1.3840    5.0700 C   0  0  0  0  0  0  0  0  0  0  0  0
   21.2580   -0.0190    5.0590 C   0  0  0  0  0  0  0  0  0  0  0  0
   22.5860    0.4340    5.0780 C   0  0  0  0  0  0  0  0  0  0  0  0
   23.6350   -0.4910    5.1040 C   0  0  0  0  0  0  0  0  0  0  0  0
   24.9890   -0.0460    5.1240 O   0  0  0  0  0  0  0  0  0  0  0  0
   23.3520   -1.8560    5.1110 C   0  0  0  0  0  0  0  0  0  0  0  0
   22.0210   -2.3030    5.0910 C   0  0  0  0  0  0  0  0  0  0  0  0
   18.9770   -2.6940    6.0740 C   0  0  2  0  0  0  0  0  0  0  0  0
   17.6220   -3.4000    6.0760 C   0  0  0  0  0  0  0  0  0  0  0  0
   17.5540   -4.6200    6.9920 C   0  0  0  0  0  0  0  0  0  0  0  0
   18.8820   -5.1200    7.5530 C   0  0  2  0  0  0  0  0  0  0  0  0
   18.6110   -5.9920    8.7980 C   0  0  0  0  0  0  0  0  0  0  0  0
   19.9130   -4.0420    7.9270 C   0  0  0  0  0  0  0  0  0  0  0  0
   19.5260   -2.6440    7.4750 C   0  0  0  0  0  0  0  0  0  0  0  0
   19.3630   -1.4950    2.5300 C   0  0  0  0  0  0  0  0  0  0  0  0
   18.7200   -1.1350    1.3250 C   0  0  0  0  0  0  0  0  0  0  0  0
  2  1  1  0
  3  2  1  0
  4  3  1  0
  5  4  1  0
  6  5  1  6
  7  6  1  0
  8  7  1  0
  9  8  1  0
 10  9  1  0
 11 10  1  0
 12 10  1  0
 13  7  1  0
 13 12  1  0
 14  6  1  0
 14 15  1  1
 16 15  1  0
 17 16  1  0
 17 18  1  1
 19 17  1  0
 20 19  1  0
 20 14  1  0
 21  5  1  0
 22 21  1  0
 22  2  1  0
M  END
$$$$
4IVW
     RDKit          3D

 79 79  0  0  0  0  0  0  0  0999 V2000
    7.4320  -16.8980   33.8050 N   0  0  0  0  0  0  0  0  0  0  0  0
    7.5740  -15.4450   33.8150 C   0  0  2  0  0  0  0  0  0  0  0  0
    6.6720  -14.7900   34.8550 C   0  0  0  0  0  0  0  0  0  0  0  0
    5.5010  -15.1520   34.9920 O   0  0  0  0  0  0  0  0  0  0  0  0
    7.2380  -14.8640   32.4390 C   0  0  0  0  0  0  0  0  0  0  0  0
    8.3100  -15.0400   31.3800 C   0  0  0  0  0  0  0  0  0  0  0  0
    7.8830  -14.3550   30.0860 C   0  0  0  0  0  0  0  0  0  0  0  0
    8.7780  -14.7330   28.9190 C   0  0  0  0  0  0  0  0  0  0  0  0
    8.2750  -14.1650   27.6360 N   0  0  0  0  0  0  0  0  0  0  0  0
    7.2090  -13.8090   35.5740 N   0  0  0  0  0  0  0  0  0  0  0  0
    6.3990  -13.0380   36.5100 C   0  0  2  0  0  0  0  0  0  0  0  0
    5.1990  -12.4260   35.7890 C   0  0  0  0  0  0  0  0  0  0  0  0
    4.0600  -12.5710   36.2200 O   0  0  0  0  0  0  0  0  0  0  0  0
    7.2020  -11.9030   37.1790 C   0  0  2  0  0  0  0  0  0  0  0  0
    8.5080  -12.4380   37.7760 C   0  0  0  0  0  0  0  0  0  0  0  0
    6.3520  -11.2050   38.2310 C   0  0  0  0  0  0  0  0  0  0  0  0
    9.3460  -11.3750   38.4720 C   0  0  0  0  0  0  0  0  0  0  0  0
    5.4640  -11.7440   34.6820 N   0  0  0  0  0  0  0  0  0  0  0  0
    4.4060  -11.0970   33.9130 C   0  0  2  0  0  0  0  0  0  0  0  0
    3.2910  -12.0900   33.5730 C   0  0  0  0  0  0  0  0  0  0  0  0
    2.1020  -11.7930   33.7160 O   0  0  0  0  0  0  0  0  0  0  0  0
    4.9830  -10.4760   32.6390 C   0  0  0  0  0  0  0  0  0  0  0  0
    3.9960   -9.7950   31.6950 C   0  0  0  0  0  0  0  0  0  0  0  0
    3.1760   -8.7460   32.4420 C   0  0  0  0  0  0  0  0  0  0  0  0
    4.7360   -9.1820   30.5020 C   0  0  0  0  0  0  0  0  0  0  0  0
    3.6900  -13.2730   33.1210 N   0  0  0  0  0  0  0  0  0  0  0  0
    2.7480  -14.3450   32.8190 C   0  0  2  0  0  0  0  0  0  0  0  0
    1.9410  -14.6830   34.0680 C   0  0  0  0  0  0  0  0  0  0  0  0
    0.7090  -14.7560   34.0410 O   0  0  0  0  0  0  0  0  0  0  0  0
    3.5170  -15.5740   32.3270 C   0  0  0  0  0  0  0  0  0  0  0  0
    2.6550  -16.7650   32.0520 C   0  0  0  0  0  0  0  0  0  0  0  0
    1.8930  -16.8860   30.9100 N   0  0  0  0  0  0  0  0  0  0  0  0
    2.4440  -17.8950   32.7670 C   0  0  0  0  0  0  0  0  0  0  0  0
    1.2500  -18.0390   30.9340 C   0  0  0  0  0  0  0  0  0  0  0  0
    1.5650  -18.6700   32.0510 N   0  0  0  0  0  0  0  0  0  0  0  0
    2.6470  -14.8770   35.1740 N   0  0  0  0  0  0  0  0  0  0  0  0
    1.9930  -15.1520   36.4420 C   0  0  2  0  0  0  0  0  0  0  0  0
    0.9730  -14.0630   36.7780 C   0  0  0  0  0  0  0  0  0  0  0  0
   -0.2100  -14.3510   36.9680 O   0  0  0  0  0  0  0  0  0  0  0  0
    3.0350  -15.2830   37.5540 C   0  0  0  0  0  0  0  0  0  0  0  0
    2.4490  -15.5210   38.9330 C   0  0  0  0  0  0  0  0  0  0  0  0
    3.4940  -16.0740   39.8940 C   0  0  0  0  0  0  0  0  0  0  0  0
    4.6160  -15.1600   40.1010 N   0  0  0  0  0  0  0  0  0  0  0  0
    4.6020  -14.1550   40.9690 C   0  0  0  0  0  0  0  0  0  0  0  0
    3.5190  -13.9330   41.7020 N   0  0  0  0  0  0  0  0  0  0  0  0
    5.6660  -13.3710   41.1020 N   0  0  0  0  0  0  0  0  0  0  0  0
    1.4290  -12.8130   36.8310 N   0  0  0  0  0  0  0  0  0  0  0  0
    0.5720  -11.7070   37.2600 C   0  0  2  0  0  0  0  0  0  0  0  0
   -0.6080  -11.4890   36.3220 C   0  0  0  0  0  0  0  0  0  0  0  0
   -1.6820  -11.0870   36.7490 O   0  0  0  0  0  0  0  0  0  0  0  0
    1.3720  -10.4120   37.3960 C   0  0  0  0  0  0  0  0  0  0  0  0
    2.6020  -10.4180   38.3070 C   0  0  0  0  0  0  0  0  0  0  0  0
    3.2940   -9.0690   38.2490 C   0  0  0  0  0  0  0  0  0  0  0  0
    2.2350  -10.7760   39.7470 C   0  0  0  0  0  0  0  0  0  0  0  0
   -0.4060  -11.7450   35.0360 N   0  0  0  0  0  0  0  0  0  0  0  0
   -1.5040  -11.6610   34.0820 C   0  0  2  0  0  0  0  0  0  0  0  0
   -2.5450  -12.7310   34.3910 C   0  0  0  0  0  0  0  0  0  0  0  0
   -3.7470  -12.4900   34.2920 O   0  0  0  0  0  0  0  0  0  0  0  0
   -0.9890  -11.8100   32.6470 C   0  0  0  0  0  0  0  0  0  0  0  0
   -0.4660  -10.5250   32.0000 C   0  0  0  0  0  0  0  0  0  0  0  0
    0.3360  -10.8230   30.7410 C   0  0  0  0  0  0  0  0  0  0  0  0
   -1.6190   -9.5870   31.6970 C   0  0  0  0  0  0  0  0  0  0  0  0
   -2.0720  -13.9080   34.7910 N   0  0  0  0  0  0  0  0  0  0  0  0
   -2.9510  -15.0530   35.0030 C   0  0  2  0  0  0  0  0  0  0  0  0
   -3.9260  -14.8770   36.1710 C   0  0  0  0  0  0  0  0  0  0  0  0
   -5.1010  -15.2260   36.0570 O   0  0  0  0  0  0  0  0  0  0  0  0
   -2.1340  -16.3340   35.1730 C   0  0  0  0  0  0  0  0  0  0  0  0
   -2.6210  -17.4650   34.2990 C   0  0  0  0  0  0  0  0  0  0  0  0
   -1.8360  -18.7380   34.5020 C   0  0  0  0  0  0  0  0  0  0  0  0
   -1.1190  -18.8900   35.4920 O   0  0  0  0  0  0  0  0  0  0  0  0
   -1.9620  -19.6650   33.5580 N   0  0  0  0  0  0  0  0  0  0  0  0
   -3.4490  -14.3420   37.2890 N   0  0  0  0  0  0  0  0  0  0  0  0
   -4.3310  -14.1010   38.4260 C   0  0  2  0  0  0  0  0  0  0  0  0
   -4.9720  -12.7250   38.3380 C   0  0  0  0  0  0  0  0  0  0  0  0
   -5.9910  -12.5480   37.6740 O   0  0  0  0  0  0  0  0  0  0  0  0
   -3.5820  -14.2540   39.7500 C   0  0  0  0  0  0  0  0  0  0  0  0
   -2.4630  -13.2470   39.9070 C   0  0  0  0  0  0  0  0  0  0  0  0
   -2.6730  -12.0640   39.5700 O   0  0  0  0  0  0  0  0  0  0  0  0
   -1.3690  -13.6410   40.3610 O   0  0  0  0  0  0  0  0  0  0  0  0
  2  1  1  6
  3  2  1  0
  4  3  2  0
  5  2  1  0
  6  5  1  0
  7  6  1  0
  8  7  1  0
  9  8  1  0
 10  3  1  0
 11 10  1  6
 12 11  1  0
 13 12  2  0
 14 11  1  0
 15 14  1  0
 14 16  1  1
 17 15  1  0
 18 12  1  0
 19 18  1  0
 20 19  1  0
 21 20  2  0
 19 22  1  6
 23 22  1  0
 24 23  1  0
 25 23  1  0
 26 20  1  0
 27 26  1  0
 28 27  1  0
 29 28  2  0
 27 30  1  1
 31 30  1  0
 32 31  1  0
 33 31  2  0
 34 32  2  0
 35 34  1  0
 35 33  1  0
 36 28  1  0
 37 36  1  0
 38 37  1  0
 39 38  2  0
 37 40  1  1
 41 40  1  0
 42 41  1  0
 43 42  1  0
 44 43  1  0
 45 44  1  0
 46 44  2  0
 47 38  1  0
 48 47  1  0
 49 48  1  0
 50 49  2  0
 48 51  1  6
 52 51  1  0
 53 52  1  0
 54 52  1  0
 55 49  1  0
 56 55  1  0
 57 56  1  0
 58 57  2  0
 56 59  1  6
 60 59  1  0
 61 60  1  0
 62 60  1  0
 63 57  1  0
 64 63  1  0
 65 64  1  0
 66 65  2  0
 64 67  1  1
 68 67  1  0
 69 68  1  0
 70 69  2  0
 71 69  1  0
 72 65  1  0
 73 72  1  0
 74 73  1  0
 75 74  2  0
 73 76  1  1
 77 76  1  0
 78 77  2  0
 79 77  1  0
M  END
$$$$
7RS7
     RDKit          3D

 37 41  0  0  0  0  0  0  0  0999 V2000
  -14.8040  -18.2650   15.4740 C   0  0  0  0  0  0  0  0  0  0  0  0
  -10.9180  -17.9200   14.1160 C   0  0  2  0  0  0  0  0  0  0  0  0
  -11.8370  -20.0870   15.2170 C   0  0  0  0  0  0  0  0  0  0  0  0
  -16.1030  -18.1950   15.8650 C   0  0  0  0  0  0  0  0  0  0  0  0
  -16.7420  -18.3940   13.6620 C   0  0  0  0  0  0  0  0  0  0  0  0
  -14.4210  -18.4000   14.1670 C   0  0  0  0  0  0  0  0  0  0  0  0
  -11.8240  -16.7300    9.2780 C   0  0  0  0  0  0  0  0  0  0  0  0
  -12.9080  -18.5810    8.2210 C   0  0  0  0  0  0  0  0  0  0  0  0
  -12.3590  -17.8690   12.5980 C   0  0  2  0  0  0  0  0  0  0  0  0
   -8.7920  -17.3700    9.5340 C   0  0  1  0  0  0  0  0  0  0  0  0
  -10.4930  -21.5180   16.5300 C   0  0  0  0  0  0  0  0  0  0  0  0
  -11.4530  -16.4950   14.2720 C   0  0  0  0  0  0  0  0  0  0  0  0
   -9.2370  -18.1520    8.5880 F   0  0  0  0  0  0  0  0  0  0  0  0
  -11.4670  -22.4080   16.6880 C   0  0  0  0  0  0  0  0  0  0  0  0
  -10.9630  -18.1240   12.7260 O   0  0  0  0  0  0  0  0  0  0  0  0
  -10.6470  -20.3870   15.8230 C   0  0  0  0  0  0  0  0  0  0  0  0
  -12.8310  -21.0050   15.4020 C   0  0  0  0  0  0  0  0  0  0  0  0
   -8.8370  -18.0620   10.6460 F   0  0  0  0  0  0  0  0  0  0  0  0
   -7.5310  -17.1780    9.2210 F   0  0  0  0  0  0  0  0  0  0  0  0
  -12.0460  -18.0600    9.1250 C   0  0  0  0  0  0  0  0  0  0  0  0
  -14.4850  -18.3890    6.5060 O   0  0  0  0  0  0  0  0  0  0  0  0
  -12.6530  -22.1310   16.1220 C   0  0  0  0  0  0  0  0  0  0  0  0
  -10.6370  -14.7590   12.5060 O   0  0  0  0  0  0  0  0  0  0  0  0
  -17.1130  -18.2540   14.9480 C   0  0  0  0  0  0  0  0  0  0  0  0
  -12.2340  -16.3850   12.9430 C   0  0  1  0  0  0  0  0  0  0  0  0
  -13.4270  -16.4900    7.5130 C   0  0  0  0  0  0  0  0  0  0  0  0
  -12.8750  -14.7290   11.2820 O   0  0  0  0  0  0  0  0  0  0  0  0
  -11.0080  -16.1440   10.1120 N   0  0  0  0  0  0  0  0  0  0  0  0
  -13.6240  -17.8180    7.3950 C   0  0  0  0  0  0  0  0  0  0  0  0
  -11.5510  -15.3550   11.5390 S   0  0  1  0  0  0  0  0  0  0  0  0
   -9.5350  -16.0720    9.7370 C   0  0  0  0  0  0  0  0  0  0  0  0
  -11.2500  -23.5030   17.4420 O   0  0  0  0  0  0  0  0  0  0  0  0
  -12.0100  -18.9490   14.4920 C   0  0  2  0  0  0  0  0  0  0  0  0
  -18.4260  -18.1940   15.3280 O   0  0  0  0  0  0  0  0  0  0  0  0
  -15.4460  -18.4600   13.2800 C   0  0  0  0  0  0  0  0  0  0  0  0
  -13.0820  -18.5030   13.8070 C   0  0  1  0  0  0  0  0  0  0  0  0
  -12.5660  -15.9760    8.4230 C   0  0  0  0  0  0  0  0  0  0  0  0
  4  1  1  0
  6  1  1  0
  2 12  1  6
 10 13  1  6
 14 11  1  0
  9 15  1  1
 15  2  1  0
 16  3  1  0
 16 11  1  0
 17  3  1  0
 18 10  1  0
 19 10  1  0
 20  8  1  0
 20  7  1  0
 22 14  1  0
 22 17  1  0
 24  5  1  0
 24  4  1  0
 25 12  1  1
 25  9  1  0
 28  7  1  0
 29 26  1  0
 29 21  1  0
 29  8  1  0
 30 25  1  0
 30 28  1  0
 30 27  1  6
 30 23  1  0
 31 28  1  0
 31 10  1  0
 32 14  1  0
 33  3  1  6
 33  2  1  0
 34 24  1  0
 35  5  1  0
 35  6  1  0
 36 33  1  0
 36  9  1  0
 36  6  1  1
 37 26  1  0
 37  7  1  0
M  END
$$$$
7BA9
     RDKit          3D

 42 43  0  0  0  0  0  0  0  0999 V2000
   12.8160    7.7960   14.4020 N   0  0  0  0  0  0  0  0  0  0  0  0
   13.6980    8.9690   14.3860 C   0  0  2  0  0  0  0  0  0  0  0  0
   12.9980   10.1940   13.7900 C   0  0  0  0  0  0  0  0  0  0  0  0
   12.1120   10.0610   12.9210 O   0  0  0  0  0  0  0  0  0  0  0  0
   15.0000    8.6730   13.6200 C   0  0  0  0  0  0  0  0  0  0  0  0
   14.7990    8.0520   12.2810 C   0  0  0  0  0  0  0  0  0  0  0  0
   14.6870    8.8410   11.1410 C   0  0  0  0  0  0  0  0  0  0  0  0
   14.7380    6.6710   12.1460 C   0  0  0  0  0  0  0  0  0  0  0  0
   14.4840    8.2600    9.8950 C   0  0  0  0  0  0  0  0  0  0  0  0
   14.5320    6.0880   10.9060 C   0  0  0  0  0  0  0  0  0  0  0  0
   14.4160    6.8840    9.7780 C   0  0  0  0  0  0  0  0  0  0  0  0
   13.3840   11.3810   14.2430 N   0  0  0  0  0  0  0  0  0  0  0  0
   12.7850   12.6060   13.6940 C   0  0  2  0  0  0  0  0  0  0  0  0
   13.3950   12.9780   12.3440 C   0  0  0  0  0  0  0  0  0  0  0  0
   14.4530   12.5030   11.9320 O   0  0  0  0  0  0  0  0  0  0  0  0
   13.1070   13.6530   14.7650 C   0  0  0  0  0  0  0  0  0  0  0  0
   14.5140   13.2010   15.2620 C   0  0  0  0  0  0  0  0  0  0  0  0
   14.4260   11.6700   15.2700 C   0  0  0  0  0  0  0  0  0  0  0  0
   12.6860   13.8430   11.6170 N   0  0  0  0  0  0  0  0  0  0  0  0
   13.1060   14.1890   10.2780 C   0  0  2  0  0  0  0  0  0  0  0  0
   14.2430   15.2170   10.2690 C   0  0  0  0  0  0  0  0  0  0  0  0
   14.1760   16.1950   11.0090 O   0  0  0  0  0  0  0  0  0  0  0  0
   11.9440   14.7570    9.4510 C   0  0  0  0  0  0  0  0  0  0  0  0
   15.2560   14.9830    9.4390 N   0  0  0  0  0  0  0  0  0  0  0  0
   16.2920   15.9470    9.1140 C   0  0  1  0  0  0  0  0  0  0  0  0
   17.6360   15.6480    9.8980 C   0  0  1  0  0  0  0  0  0  0  0  0
   17.4350   15.8200   11.4090 C   0  0  0  0  0  0  0  0  0  0  0  0
   17.8830   14.2770    9.5500 O   0  0  0  0  0  0  0  0  0  0  0  0
   19.3530   13.6330    9.9350 P   0  0  0  0  0  0  0  0  0  0  0  0
   19.3330   12.3540    9.0020 O   0  0  0  0  0  0  0  0  0  0  0  0
   19.3170   13.2320   11.3740 O   0  0  0  0  0  0  0  0  0  0  0  0
   20.4490   14.6450    9.5730 O   0  0  0  0  0  0  0  0  0  0  0  0
   16.5200   15.9370    7.6320 C   0  0  1  0  0  0  0  0  0  0  0  0
   16.1270   14.9770    6.9270 O   0  0  0  0  0  0  0  0  0  0  0  0
   17.0720   17.0330    7.1370 N   0  0  0  0  0  0  0  0  0  0  0  0
   17.4310   17.1450    5.7150 C   0  0  2  0  0  0  0  0  0  0  0  0
   18.8440   17.5260    5.4190 C   0  0  0  0  0  0  0  0  0  0  0  0
   19.6470   17.9640    6.2580 O   0  0  0  0  0  0  0  0  0  0  0  0
   16.5150   18.1300    4.9380 C   0  0  0  0  0  0  0  0  0  0  0  0
   15.1260   17.7260    5.0380 C   0  0  0  0  0  0  0  0  0  0  0  0
   16.7160   19.5570    5.4320 C   0  0  0  0  0  0  0  0  0  0  0  0
   19.2420   17.4240    4.2270 O   0  0  0  0  0  0  0  0  0  0  0  0
  2  1  1  6
  3  2  1  0
  4  3  2  0
  5  2  1  0
  6  5  1  0
  7  6  2  0
  8  6  1  0
  9  7  1  0
 10  8  2  0
 11  9  2  0
 11 10  1  0
 12  3  1  0
 13 12  1  0
 13 14  1  6
 15 14  2  0
 16 13  1  0
 17 16  1  0
 18 17  1  0
 18 12  1  0
 19 14  1  0
 20 19  1  0
 21 20  1  0
 22 21  2  0
 20 23  1  6
 24 21  1  0
 25 24  1  6
 26 25  1  0
 26 27  1  1
 28 26  1  0
 29 28  1  0
 30 29  1  0
 31 29  1  0
 32 29  1  0
 33 25  1  0
 33 34  1  6
 35 33  1  0
 36 35  1  1
 37 36  1  0
 38 37  2  0
 39 36  1  0
 40 39  1  0
 41 39  1  0
 42 37  1  0
M  END
$$$$
7B9T
     RDKit          3D

 42 43  0  0  0  0  0  0  0  0999 V2000
   12.8890    8.0580   14.6910 N   0  0  0  0  0  0  0  0  0  0  0  0
   13.7500    9.2420   14.6920 C   0  0  2  0  0  0  0  0  0  0  0  0
   13.0580   10.4410   14.0530 C   0  0  0  0  0  0  0  0  0  0  0  0
   12.2580   10.2820   13.1120 O   0  0  0  0  0  0  0  0  0  0  0  0
   15.0870    8.9560   13.9780 C   0  0  0  0  0  0  0  0  0  0  0  0
   14.9460    8.3600   12.5940 C   0  0  0  0  0  0  0  0  0  0  0  0
   14.8180    9.1740   11.4730 C   0  0  0  0  0  0  0  0  0  0  0  0
   14.9880    6.9800   12.4090 C   0  0  0  0  0  0  0  0  0  0  0  0
   14.6990    8.6220   10.2010 C   0  0  0  0  0  0  0  0  0  0  0  0
   14.8670    6.4210   11.1360 C   0  0  0  0  0  0  0  0  0  0  0  0
   14.7260    7.2390   10.0330 C   0  0  0  0  0  0  0  0  0  0  0  0
   13.3720   11.6400   14.5450 N   0  0  0  0  0  0  0  0  0  0  0  0
   12.7910   12.8450   13.9560 C   0  0  2  0  0  0  0  0  0  0  0  0
   13.4030   13.1490   12.5960 C   0  0  0  0  0  0  0  0  0  0  0  0
   14.4730   12.6640   12.2070 O   0  0  0  0  0  0  0  0  0  0  0  0
   13.1540   13.9170   14.9800 C   0  0  0  0  0  0  0  0  0  0  0  0
   14.5450   13.4670   15.4670 C   0  0  0  0  0  0  0  0  0  0  0  0
   14.3460   11.9640   15.6120 C   0  0  0  0  0  0  0  0  0  0  0  0
   12.6920   13.9810   11.8470 N   0  0  0  0  0  0  0  0  0  0  0  0
   13.1170   14.3330   10.5290 C   0  0  2  0  0  0  0  0  0  0  0  0
   14.2410   15.3660   10.4810 C   0  0  0  0  0  0  0  0  0  0  0  0
   14.1780   16.3560   11.2210 O   0  0  0  0  0  0  0  0  0  0  0  0
   11.9270   14.8830    9.7490 C   0  0  0  0  0  0  0  0  0  0  0  0
   15.2160   15.1360    9.6160 N   0  0  0  0  0  0  0  0  0  0  0  0
   16.2880   16.0740    9.2960 C   0  0  1  0  0  0  0  0  0  0  0  0
   17.6230   15.7610   10.0250 C   0  0  1  0  0  0  0  0  0  0  0  0
   17.4920   15.9390   11.5330 C   0  0  0  0  0  0  0  0  0  0  0  0
   17.9380   14.3850    9.6790 O   0  0  0  0  0  0  0  0  0  0  0  0
   19.3820   13.7540   10.0430 P   0  0  0  0  0  0  0  0  0  0  0  0
   19.4360   12.4880    9.1240 O   0  0  0  0  0  0  0  0  0  0  0  0
   19.4290   13.3740   11.4690 O   0  0  0  0  0  0  0  0  0  0  0  0
   20.4480   14.7860    9.7060 O   0  0  0  0  0  0  0  0  0  0  0  0
   16.5130   16.0780    7.8000 C   0  0  0  0  0  0  0  0  0  0  0  0
   16.1180   15.1100    7.1180 O   0  0  0  0  0  0  0  0  0  0  0  0
   17.1100   17.1280    7.2740 N   0  0  0  0  0  0  0  0  0  0  0  0
   17.3840   17.2410    5.8520 C   0  0  2  0  0  0  0  0  0  0  0  0
   18.7970   17.6220    5.5550 C   0  0  0  0  0  0  0  0  0  0  0  0
   19.5760   18.1010    6.4050 O   0  0  0  0  0  0  0  0  0  0  0  0
   16.4540   18.2310    5.1070 C   0  0  0  0  0  0  0  0  0  0  0  0
   15.0720   17.7850    5.1840 C   0  0  0  0  0  0  0  0  0  0  0  0
   16.6280   19.6680    5.6150 C   0  0  0  0  0  0  0  0  0  0  0  0
   19.2210   17.4500    4.4080 O   0  0  0  0  0  0  0  0  0  0  0  0
  2  1  1  6
  3  2  1  0
  4  3  2  0
  5  2  1  0
  6  5  1  0
  7  6  2  0
  8  6  1  0
  9  7  1  0
 10  8  2  0
 11  9  2  0
 11 10  1  0
 12  3  1  0
 13 12  1  0
 13 14  1  6
 15 14  2  0
 16 13  1  0
 17 16  1  0
 18 17  1  0
 18 12  1  0
 19 14  1  0
 20 19  1  0
 21 20  1  0
 22 21  2  0
 20 23  1  6
 24 21  1  0
 25 24  1  6
 26 25  1  0
 26 27  1  1
 28 26  1  0
 29 28  1  0
 30 29  1  0
 31 29  1  0
 32 29  1  0
 33 25  1  0
 34 33  1  0
 35 33  1  0
 36 35  1  1
 37 36  1  0
 38 37  2  0
 39 36  1  0
 40 39  1  0
 41 39  1  0
 42 37  1  0
M  END
$$$$
8ALT
     RDKit          3D

 42 43  0  0  0  0  0  0  0  0999 V2000
   12.7190    7.9800   14.4850 N   0  0  0  0  0  0  0  0  0  0  0  0
   13.7600    9.0450   14.4760 C   0  0  2  0  0  0  0  0  0  0  0  0
   13.2120   10.2700   13.7530 C   0  0  0  0  0  0  0  0  0  0  0  0
   12.4140   10.1710   12.8180 O   0  0  0  0  0  0  0  0  0  0  0  0
   15.0620    8.5560   13.8230 C   0  0  0  0  0  0  0  0  0  0  0  0
   14.9030    8.0640   12.4200 C   0  0  0  0  0  0  0  0  0  0  0  0
   14.6170    6.7180   12.1730 C   0  0  0  0  0  0  0  0  0  0  0  0
   15.0580    8.9320   11.3270 C   0  0  0  0  0  0  0  0  0  0  0  0
   14.4610    6.2410   10.8790 C   0  0  0  0  0  0  0  0  0  0  0  0
   14.9120    8.4380   10.0200 C   0  0  0  0  0  0  0  0  0  0  0  0
   14.6130    7.1010    9.8040 C   0  0  0  0  0  0  0  0  0  0  0  0
   13.5900   11.4780   14.1920 N   0  0  0  0  0  0  0  0  0  0  0  0
   13.0020   12.6910   13.6380 C   0  0  2  0  0  0  0  0  0  0  0  0
   13.5710   13.0610   12.2630 C   0  0  0  0  0  0  0  0  0  0  0  0
   14.6440   12.6230   11.8630 O   0  0  0  0  0  0  0  0  0  0  0  0
   13.3090   13.7090   14.7210 C   0  0  0  0  0  0  0  0  0  0  0  0
   14.6330   13.2620   15.2600 C   0  0  0  0  0  0  0  0  0  0  0  0
   14.5690   11.7490   15.2510 C   0  0  0  0  0  0  0  0  0  0  0  0
   12.8230   13.8890   11.5650 N   0  0  0  0  0  0  0  0  0  0  0  0
   13.1930   14.2930   10.2380 C   0  0  2  0  0  0  0  0  0  0  0  0
   14.3100   15.3040   10.2470 C   0  0  0  0  0  0  0  0  0  0  0  0
   14.2490   16.2840   10.9850 O   0  0  0  0  0  0  0  0  0  0  0  0
   12.0040   14.8940    9.5260 C   0  0  0  0  0  0  0  0  0  0  0  0
   15.2970   15.0800    9.3800 N   0  0  0  0  0  0  0  0  0  0  0  0
   16.3630   16.0380    9.0500 C   0  0  1  0  0  0  0  0  0  0  0  0
   17.6570   15.7250    9.8150 C   0  0  1  0  0  0  0  0  0  0  0  0
   17.4750   15.8660   11.3150 C   0  0  0  0  0  0  0  0  0  0  0  0
   18.0060   14.3540    9.4740 O   0  0  0  0  0  0  0  0  0  0  0  0
   19.4330   13.7110    9.8450 P   0  0  0  0  0  0  0  0  0  0  0  0
   19.5040   12.5030    8.9600 O   0  0  0  0  0  0  0  0  0  0  0  0
   19.4180   13.3710   11.3230 O   0  0  0  0  0  0  0  0  0  0  0  0
   20.4860   14.7400    9.5410 O   0  0  0  0  0  0  0  0  0  0  0  0
   16.5700   16.0320    7.5370 C   0  0  0  0  0  0  0  0  0  0  0  0
   16.1970   15.0650    6.8820 O   0  0  0  0  0  0  0  0  0  0  0  0
   17.1570   17.1110    7.0300 N   0  0  0  0  0  0  0  0  0  0  0  0
   17.4550   17.2320    5.6150 C   0  0  2  0  0  0  0  0  0  0  0  0
   18.8920   17.5300    5.3360 C   0  0  0  0  0  0  0  0  0  0  0  0
   19.6470   17.9040    6.2370 O   0  0  0  0  0  0  0  0  0  0  0  0
   16.5780   18.2810    4.9240 C   0  0  0  0  0  0  0  0  0  0  0  0
   15.1150   17.9140    5.0360 C   0  0  0  0  0  0  0  0  0  0  0  0
   16.8620   19.6780    5.4270 C   0  0  0  0  0  0  0  0  0  0  0  0
   19.2930   17.3710    4.1410 O   0  0  0  0  0  0  0  0  0  0  0  0
  2  1  1  6
  3  2  1  0
  4  3  2  0
  5  2  1  0
  6  5  1  0
  7  6  2  0
  8  6  1  0
  9  7  1  0
 10  8  2  0
 11 10  1  0
 11  9  2  0
 12  3  1  0
 13 12  1  0
 13 14  1  6
 15 14  2  0
 16 13  1  0
 17 16  1  0
 18 17  1  0
 18 12  1  0
 19 14  1  0
 20 19  1  0
 21 20  1  0
 22 21  2  0
 20 23  1  1
 24 21  1  0
 25 24  1  6
 26 25  1  0
 26 27  1  1
 28 26  1  0
 29 28  1  0
 30 29  1  0
 31 29  1  0
 32 29  1  0
 33 25  1  0
 34 33  1  0
 35 33  1  0
 36 35  1  1
 37 36  1  0
 38 37  2  0
 39 36  1  0
 40 39  1  0
 41 39  1  0
 42 37  1  0
M  END
$$$$
6HHP
     RDKit          3D

 42 43  0  0  0  0  0  0  0  0999 V2000
   13.0430    7.9320   14.3620 N   0  0  0  0  0  0  0  0  0  0  0  0
   13.9080    9.1080   14.3730 C   0  0  2  0  0  0  0  0  0  0  0  0
   13.2100   10.3310   13.7600 C   0  0  0  0  0  0  0  0  0  0  0  0
   12.3650   10.1880   12.8690 O   0  0  0  0  0  0  0  0  0  0  0  0
   15.2210    8.8130   13.6310 C   0  0  0  0  0  0  0  0  0  0  0  0
   15.0330    8.2000   12.2700 C   0  0  0  0  0  0  0  0  0  0  0  0
   14.9130    9.0000   11.1410 C   0  0  0  0  0  0  0  0  0  0  0  0
   14.9880    6.8200   12.1150 C   0  0  0  0  0  0  0  0  0  0  0  0
   14.7390    8.4300    9.8840 C   0  0  0  0  0  0  0  0  0  0  0  0
   14.8140    6.2490   10.8640 C   0  0  0  0  0  0  0  0  0  0  0  0
   14.6930    7.0510    9.7500 C   0  0  0  0  0  0  0  0  0  0  0  0
   13.5580   11.5260   14.2380 N   0  0  0  0  0  0  0  0  0  0  0  0
   12.9700   12.7460   13.6750 C   0  0  2  0  0  0  0  0  0  0  0  0
   13.5780   13.0750   12.3200 C   0  0  0  0  0  0  0  0  0  0  0  0
   14.6530   12.5970   11.9530 O   0  0  0  0  0  0  0  0  0  0  0  0
   13.3150   13.8150   14.7150 C   0  0  0  0  0  0  0  0  0  0  0  0
   14.6150   13.3430   15.2880 C   0  0  0  0  0  0  0  0  0  0  0  0
   14.5190   11.8250   15.3180 C   0  0  0  0  0  0  0  0  0  0  0  0
   12.8650   13.9060   11.5630 N   0  0  0  0  0  0  0  0  0  0  0  0
   13.2950   14.2400   10.2150 C   0  0  2  0  0  0  0  0  0  0  0  0
   14.4100   15.2850   10.2130 C   0  0  0  0  0  0  0  0  0  0  0  0
   14.3550   16.2520   10.9620 O   0  0  0  0  0  0  0  0  0  0  0  0
   12.1150   14.7310    9.3900 C   0  0  0  0  0  0  0  0  0  0  0  0
   15.4170   15.0610    9.3710 N   0  0  0  0  0  0  0  0  0  0  0  0
   16.4890   16.0230    9.0910 C   0  0  1  0  0  0  0  0  0  0  0  0
   17.7830   15.6530    9.8350 C   0  0  1  0  0  0  0  0  0  0  0  0
   17.6080   15.8650   11.3440 C   0  0  0  0  0  0  0  0  0  0  0  0
   17.9840   14.2810    9.4960 O   0  0  0  0  0  0  0  0  0  0  0  0
   19.4420   13.6990    9.8690 P   0  0  0  0  0  0  0  0  0  0  0  0
   19.5710   12.3660    8.9930 O   0  0  0  0  0  0  0  0  0  0  0  0
   19.4460   13.3310   11.3000 O   0  0  0  0  0  0  0  0  0  0  0  0
   20.6050   14.7430    9.5160 O   0  0  0  0  0  0  0  0  0  0  0  0
   16.7170   16.0210    7.5830 C   0  0  0  0  0  0  0  0  0  0  0  0
   16.3900   15.0360    6.9170 O   0  0  0  0  0  0  0  0  0  0  0  0
   17.2500   17.1110    7.0350 N   0  0  0  0  0  0  0  0  0  0  0  0
   17.5380   17.1780    5.6040 C   0  0  2  0  0  0  0  0  0  0  0  0
   18.9750   17.5610    5.3610 C   0  0  0  0  0  0  0  0  0  0  0  0
   19.7240   17.8580    6.2940 O   0  0  0  0  0  0  0  0  0  0  0  0
   16.6160   18.1730    4.8620 C   0  0  0  0  0  0  0  0  0  0  0  0
   15.1900   17.7030    4.9040 C   0  0  0  0  0  0  0  0  0  0  0  0
   16.7620   19.5720    5.4570 C   0  0  0  0  0  0  0  0  0  0  0  0
   19.4000   17.5940    4.2000 O   0  0  0  0  0  0  0  0  0  0  0  0
  2  1  1  6
  3  2  1  0
  4  3  2  0
  5  2  1  0
  6  5  1  0
  7  6  2  0
  8  6  1  0
  9  7  1  0
 10  8  2  0
 11 10  1  0
 11  9  2  0
 12  3  1  0
 13 12  1  0
 13 14  1  6
 15 14  2  0
 16 13  1  0
 17 16  1  0
 18 17  1  0
 18 12  1  0
 19 14  1  0
 20 19  1  0
 21 20  1  0
 22 21  2  0
 20 23  1  6
 24 21  1  0
 25 24  1  6
 26 25  1  0
 26 27  1  1
 28 26  1  0
 29 28  1  0
 30 29  1  0
 31 29  1  0
 32 29  1  0
 33 25  1  0
 34 33  1  0
 35 33  1  0
 36 35  1  1
 37 36  1  0
 38 37  2  0
 39 36  1  0
 40 39  1  0
 41 39  1  0
 42 37  1  0
M  END
$$$$
5DWE
     RDKit          3D

 79 79  0  0  0  0  0  0  0  0999 V2000
  -29.6680   -7.0490   -6.2250 N   0  0  0  0  0  0  0  0  0  0  0  0
  -28.8550   -8.1920   -6.0010 C   0  0  2  0  0  0  0  0  0  0  0  0
  -28.5760   -8.3770   -4.5230 C   0  0  0  0  0  0  0  0  0  0  0  0
  -28.2460   -7.4170   -3.8170 O   0  0  0  0  0  0  0  0  0  0  0  0
  -27.5160   -8.0520   -6.8060 C   0  0  0  0  0  0  0  0  0  0  0  0
  -27.7750   -8.3540   -8.2540 C   0  0  0  0  0  0  0  0  0  0  0  0
  -26.5070   -8.8380   -8.9060 C   0  0  0  0  0  0  0  0  0  0  0  0
  -25.6350   -7.6770   -9.3360 C   0  0  0  0  0  0  0  0  0  0  0  0
  -25.0310   -7.9410  -10.6730 N   0  0  0  0  0  0  0  0  0  0  0  0
  -28.8370   -9.5730   -4.0260 N   0  0  0  0  0  0  0  0  0  0  0  0
  -28.4850   -9.9270   -2.6580 C   0  0  2  0  0  0  0  0  0  0  0  0
  -27.0320   -9.5570   -2.3950 C   0  0  0  0  0  0  0  0  0  0  0  0
  -26.7020   -9.0320   -1.3330 O   0  0  0  0  0  0  0  0  0  0  0  0
  -28.6960  -11.4210   -2.3890 C   0  0  2  0  0  0  0  0  0  0  0  0
  -30.1830  -11.7480   -2.4310 C   0  0  0  0  0  0  0  0  0  0  0  0
  -28.1310  -11.7970   -1.0420 C   0  0  0  0  0  0  0  0  0  0  0  0
  -30.5220  -12.8810   -3.3630 C   0  0  0  0  0  0  0  0  0  0  0  0
  -26.1750   -9.8030   -3.3860 N   0  0  0  0  0  0  0  0  0  0  0  0
  -24.7540   -9.4970   -3.2680 C   0  0  2  0  0  0  0  0  0  0  0  0
  -24.5300   -8.0630   -2.8130 C   0  0  0  0  0  0  0  0  0  0  0  0
  -23.6960   -7.8110   -1.9460 O   0  0  0  0  0  0  0  0  0  0  0  0
  -24.0280   -9.7350   -4.5960 C   0  0  0  0  0  0  0  0  0  0  0  0
  -22.5210   -9.9330   -4.4610 C   0  0  0  0  0  0  0  0  0  0  0  0
  -22.2600  -10.9800   -3.4260 C   0  0  0  0  0  0  0  0  0  0  0  0
  -21.9060  -10.3490   -5.7880 C   0  0  0  0  0  0  0  0  0  0  0  0
  -25.2780   -7.1260   -3.3900 N   0  0  0  0  0  0  0  0  0  0  0  0
  -25.1510   -5.7300   -2.9900 C   0  0  2  0  0  0  0  0  0  0  0  0
  -25.3950   -5.5550   -1.4900 C   0  0  0  0  0  0  0  0  0  0  0  0
  -24.6290   -4.8720   -0.8140 O   0  0  0  0  0  0  0  0  0  0  0  0
  -26.1330   -4.8230   -3.7200 C   0  0  0  0  0  0  0  0  0  0  0  0
  -25.9660   -4.7420   -5.2020 C   0  0  0  0  0  0  0  0  0  0  0  0
  -24.7450   -4.5850   -5.8190 N   0  0  0  0  0  0  0  0  0  0  0  0
  -26.8940   -4.7130   -6.1880 C   0  0  0  0  0  0  0  0  0  0  0  0
  -24.9240   -4.5050   -7.1270 C   0  0  0  0  0  0  0  0  0  0  0  0
  -26.2190   -4.5780   -7.3760 N   0  0  0  0  0  0  0  0  0  0  0  0
  -26.4780   -6.1460   -0.9830 N   0  0  0  0  0  0  0  0  0  0  0  0
  -26.8290   -6.0190    0.4340 C   0  0  2  0  0  0  0  0  0  0  0  0
  -25.7100   -6.5000    1.3270 C   0  0  0  0  0  0  0  0  0  0  0  0
  -25.2730   -5.8050    2.2440 O   0  0  0  0  0  0  0  0  0  0  0  0
  -28.0930   -6.8090    0.7680 C   0  0  0  0  0  0  0  0  0  0  0  0
  -29.3020   -5.9370    0.9320 C   0  0  0  0  0  0  0  0  0  0  0  0
  -30.2930   -6.4170    1.9450 C   0  0  0  0  0  0  0  0  0  0  0  0
  -30.5380   -7.8390    1.8010 N   0  0  0  0  0  0  0  0  0  0  0  0
  -29.9830   -8.7250    2.6100 C   0  0  0  0  0  0  0  0  0  0  0  0
  -29.1930   -8.2710    3.5710 N   0  0  0  0  0  0  0  0  0  0  0  0
  -30.2020  -10.0260    2.4780 N   0  0  0  0  0  0  0  0  0  0  0  0
  -25.2540   -7.7070    1.0320 N   0  0  0  0  0  0  0  0  0  0  0  0
  -24.2740   -8.4020    1.8450 C   0  0  2  0  0  0  0  0  0  0  0  0
  -22.9540   -7.6470    1.8910 C   0  0  0  0  0  0  0  0  0  0  0  0
  -22.2090   -7.7400    2.8650 O   0  0  0  0  0  0  0  0  0  0  0  0
  -24.0640   -9.8180    1.3040 C   0  0  0  0  0  0  0  0  0  0  0  0
  -25.0750  -10.9130    1.6770 C   0  0  0  0  0  0  0  0  0  0  0  0
  -26.5090  -10.4050    1.8200 C   0  0  0  0  0  0  0  0  0  0  0  0
  -25.0180  -12.0200    0.6480 C   0  0  0  0  0  0  0  0  0  0  0  0
  -22.6760   -6.8880    0.8350 N   0  0  0  0  0  0  0  0  0  0  0  0
  -21.4400   -6.1200    0.7420 C   0  0  2  0  0  0  0  0  0  0  0  0
  -21.5110   -4.7790    1.4680 C   0  0  0  0  0  0  0  0  0  0  0  0
  -20.5080   -4.2990    1.9930 O   0  0  0  0  0  0  0  0  0  0  0  0
  -21.0800   -5.8840   -0.7220 C   0  0  0  0  0  0  0  0  0  0  0  0
  -20.3890   -7.0330   -1.4520 C   0  0  0  0  0  0  0  0  0  0  0  0
  -20.4890   -6.8040   -2.9380 C   0  0  0  0  0  0  0  0  0  0  0  0
  -18.9350   -7.1150   -1.0290 C   0  0  0  0  0  0  0  0  0  0  0  0
  -22.6900   -4.1690    1.4870 N   0  0  0  0  0  0  0  0  0  0  0  0
  -22.8590   -2.8610    2.1180 C   0  0  2  0  0  0  0  0  0  0  0  0
  -22.9440   -2.9890    3.6290 C   0  0  0  0  0  0  0  0  0  0  0  0
  -22.8730   -1.9970    4.3600 O   0  0  0  0  0  0  0  0  0  0  0  0
  -24.1150   -2.1680    1.5910 C   0  0  0  0  0  0  0  0  0  0  0  0
  -23.9490   -1.5130    0.2370 C   0  0  0  0  0  0  0  0  0  0  0  0
  -25.2410   -0.9100   -0.2600 C   0  0  0  0  0  0  0  0  0  0  0  0
  -26.3060   -1.5060   -0.1160 O   0  0  0  0  0  0  0  0  0  0  0  0
  -25.1590    0.2850   -0.8370 N   0  0  0  0  0  0  0  0  0  0  0  0
  -23.0850   -4.2320    4.0780 N   0  0  0  0  0  0  0  0  0  0  0  0
  -23.4660   -4.5510    5.4470 C   0  0  2  0  0  0  0  0  0  0  0  0
  -22.2930   -4.9790    6.3180 C   0  0  0  0  0  0  0  0  0  0  0  0
  -22.2520   -6.1170    6.7880 O   0  0  0  0  0  0  0  0  0  0  0  0
  -24.5150   -5.6620    5.4380 C   0  0  0  0  0  0  0  0  0  0  0  0
  -25.9210   -5.1380    5.2430 C   0  0  0  0  0  0  0  0  0  0  0  0
  -26.0780   -4.0030    4.7420 O   0  0  0  0  0  0  0  0  0  0  0  0
  -26.8710   -5.8670    5.5970 O   0  0  0  0  0  0  0  0  0  0  0  0
  2  1  1  1
  3  2  1  0
  4  3  2  0
  5  2  1  0
  6  5  1  0
  7  6  1  0
  8  7  1  0
  9  8  1  0
 10  3  1  0
 11 10  1  6
 12 11  1  0
 13 12  2  0
 14 11  1  0
 15 14  1  0
 14 16  1  1
 17 15  1  0
 18 12  1  0
 19 18  1  0
 20 19  1  0
 21 20  2  0
 19 22  1  6
 23 22  1  0
 24 23  1  0
 25 23  1  0
 26 20  1  0
 27 26  1  0
 28 27  1  0
 29 28  2  0
 27 30  1  6
 31 30  1  0
 32 31  1  0
 33 31  2  0
 34 32  2  0
 35 34  1  0
 35 33  1  0
 36 28  1  0
 37 36  1  0
 38 37  1  0
 39 38  2  0
 37 40  1  6
 41 40  1  0
 42 41  1  0
 43 42  1  0
 44 43  1  0
 45 44  1  0
 46 44  2  0
 47 38  1  0
 48 47  1  0
 49 48  1  0
 50 49  2  0
 48 51  1  6
 52 51  1  0
 53 52  1  0
 54 52  1  0
 55 49  1  0
 56 55  1  0
 57 56  1  0
 58 57  2  0
 56 59  1  6
 60 59  1  0
 61 60  1  0
 62 60  1  0
 63 57  1  0
 64 63  1  0
 65 64  1  0
 66 65  2  0
 64 67  1  6
 68 67  1  0
 69 68  1  0
 70 69  2  0
 71 69  1  0
 72 65  1  0
 73 72  1  0
 74 73  1  0
 75 74  2  0
 73 76  1  6
 77 76  1  0
 78 77  2  0
 79 77  1  0
M  END
$$$$
5DVV
     RDKit          3D

 34 33  0  0  0  0  0  0  0  0999 V2000
   -2.5090  -15.5200   17.7640 N   0  0  0  0  0  0  0  0  0  0  0  0
   -1.7930  -14.6430   16.8450 C   0  0  2  0  0  0  0  0  0  0  0  0
   -0.5430  -14.0550   17.4910 C   0  0  0  0  0  0  0  0  0  0  0  0
    0.5420  -14.0930   16.9100 O   0  0  0  0  0  0  0  0  0  0  0  0
   -2.6880  -13.4920   16.3500 C   0  0  2  0  0  0  0  0  0  0  0  0
   -3.8850  -14.0430   15.5740 C   0  0  0  0  0  0  0  0  0  0  0  0
   -1.8900  -12.5290   15.4820 C   0  0  0  0  0  0  0  0  0  0  0  0
   -4.7960  -12.9710   15.0190 C   0  0  0  0  0  0  0  0  0  0  0  0
   -0.7060  -13.5140   18.6950 N   0  0  0  0  0  0  0  0  0  0  0  0
    0.3950  -12.8930   19.4240 C   0  0  2  0  0  0  0  0  0  0  0  0
    1.5450  -13.8700   19.6610 C   0  0  0  0  0  0  0  0  0  0  0  0
    2.7160  -13.4980   19.5750 O   0  0  0  0  0  0  0  0  0  0  0  0
   -0.1040  -12.3330   20.7570 C   0  0  0  0  0  0  0  0  0  0  0  0
    0.9380  -11.6760   21.6640 C   0  0  0  0  0  0  0  0  0  0  0  0
    1.6960  -10.6010   20.9110 C   0  0  0  0  0  0  0  0  0  0  0  0
    0.2770  -11.0960   22.9040 C   0  0  0  0  0  0  0  0  0  0  0  0
    1.2040  -15.1210   19.9540 N   0  0  0  0  0  0  0  0  0  0  0  0
    2.2080  -16.1540   20.1800 C   0  0  2  0  0  0  0  0  0  0  0  0
    2.9460  -16.4930   18.8890 C   0  0  0  0  0  0  0  0  0  0  0  0
    4.1470  -16.7660   18.9030 O   0  0  0  0  0  0  0  0  0  0  0  0
    1.5610  -17.4120   20.7630 C   0  0  0  0  0  0  0  0  0  0  0  0
    2.2210  -16.4710   17.7750 N   0  0  0  0  0  0  0  0  0  0  0  0
    2.7990  -16.7840   16.4730 C   0  0  2  0  0  0  0  0  0  0  0  0
    3.8150  -15.7290   16.0490 C   0  0  0  0  0  0  0  0  0  0  0  0
    4.7940  -16.0360   15.3680 O   0  0  0  0  0  0  0  0  0  0  0  0
    1.7000  -16.9100   15.4160 C   0  0  0  0  0  0  0  0  0  0  0  0
    3.5770  -14.4870   16.4550 N   0  0  0  0  0  0  0  0  0  0  0  0
    4.4680  -13.3870   16.1060 C   0  0  2  0  0  0  0  0  0  0  0  0
    5.6150  -13.2790   17.1050 C   0  0  0  0  0  0  0  0  0  0  0  0
    5.4230  -13.4670   18.3070 O   0  0  0  0  0  0  0  0  0  0  0  0
    3.6970  -12.0670   16.0450 C   0  0  0  0  0  0  0  0  0  0  0  0
    2.4040  -12.0580   15.2260 C   0  0  0  0  0  0  0  0  0  0  0  0
    1.8630  -10.6450   15.0970 C   0  0  0  0  0  0  0  0  0  0  0  0
    2.6150  -12.6830   13.8550 C   0  0  0  0  0  0  0  0  0  0  0  0
  2  1  1  1
  3  2  1  0
  4  3  2  0
  5  2  1  0
  6  5  1  0
  5  7  1  6
  8  6  1  0
  9  3  1  0
 10  9  1  0
 11 10  1  0
 12 11  2  0
 10 13  1  1
 14 13  1  0
 15 14  1  0
 16 14  1  0
 17 11  1  0
 18 17  1  0
 19 18  1  0
 20 19  2  0
 18 21  1  6
 22 19  1  0
 23 22  1  0
 24 23  1  0
 25 24  2  0
 23 26  1  6
 27 24  1  0
 28 27  1  0
 29 28  1  0
 30 29  2  0
 28 31  1  1
 32 31  1  0
 33 32  1  0
 34 32  1  0
M  END
$$$$
7RS3
     RDKit          3D

 18 18  0  0  0  0  0  0  0  0999 V2000
    7.4830  -19.3840  -24.5560 N   0  0  0  0  0  0  0  0  0  0  0  0
    6.4300  -20.3290  -24.9160 C   0  0  2  0  0  0  0  0  0  0  0  0
    5.3400  -20.2750  -23.8760 C   0  0  0  0  0  0  0  0  0  0  0  0
    5.6280  -20.1600  -22.6690 O   0  0  0  0  0  0  0  0  0  0  0  0
    6.9800  -21.7720  -25.0530 C   0  0  0  0  0  0  0  0  0  0  0  0
    7.7080  -21.9460  -26.3550 C   0  0  0  0  0  0  0  0  0  0  0  0
    7.0010  -22.1790  -27.5250 C   0  0  0  0  0  0  0  0  0  0  0  0
    9.0980  -21.8290  -26.4340 C   0  0  0  0  0  0  0  0  0  0  0  0
    7.6470  -22.3020  -28.7410 C   0  0  0  0  0  0  0  0  0  0  0  0
    9.7540  -21.9440  -27.6490 C   0  0  0  0  0  0  0  0  0  0  0  0
    9.0220  -22.1820  -28.8020 C   0  0  0  0  0  0  0  0  0  0  0  0
    9.6630  -22.3490  -30.0120 O   0  0  0  0  0  0  0  0  0  0  0  0
    4.0830  -20.3590  -24.3410 N   0  0  0  0  0  0  0  0  0  0  0  0
    2.9420  -20.2860  -23.4580 C   0  0  2  0  0  0  0  0  0  0  0  0
    2.8940  -21.4920  -22.4700 C   0  0  0  0  0  0  0  0  0  0  0  0
    3.2350  -22.6420  -22.8230 O   0  0  0  0  0  0  0  0  0  0  0  0
    1.6500  -20.2160  -24.2720 C   0  0  0  0  0  0  0  0  0  0  0  0
    0.5700  -20.4110  -23.3810 O   0  0  0  0  0  0  0  0  0  0  0  0
  2  1  1  1
  3  2  1  0
  4  3  2  0
  5  2  1  0
  6  5  1  0
  7  6  2  0
  8  6  1  0
  9  7  1  0
 10  8  2  0
 11 10  1  0
 11  9  2  0
 12 11  1  0
 13  3  1  0
 14 13  1  0
 15 14  1  0
 16 15  2  0
 14 17  1  6
 18 17  1  0
M  END
$$$$
1SJ0
     RDKit          3D

 33 37  0  0  0  0  0  0  0  0999 V2000
   31.1720   -0.2380   28.7070 C   0  0  2  0  0  0  0  0  0  0  0  0
   31.2760   -1.6690   28.1770 C   0  0  1  0  0  0  0  0  0  0  0  0
   30.0500   -2.3690   28.4310 O   0  0  0  0  0  0  0  0  0  0  0  0
   28.8610   -1.9480   27.9670 C   0  0  0  0  0  0  0  0  0  0  0  0
   27.9320   -2.9010   27.5800 C   0  0  0  0  0  0  0  0  0  0  0  0
   26.7240   -2.5350   27.0030 C   0  0  0  0  0  0  0  0  0  0  0  0
   26.3460   -1.1830   27.0310 C   0  0  2  0  0  0  0  0  0  0  0  0
   25.1280   -0.8570   26.5840 O   0  0  0  0  0  0  0  0  0  0  0  0
   27.2840   -0.2150   27.4260 C   0  0  0  0  0  0  0  0  0  0  0  0
   28.5550   -0.5630   27.8540 C   0  0  0  0  0  0  0  0  0  0  0  0
   29.6080    0.4570   28.1910 S   0  0  0  0  0  0  0  0  0  0  0  0
   32.4700    0.4800   28.4200 C   0  0  0  0  0  0  0  0  0  0  0  0
   32.6800    1.3800   27.3730 C   0  0  0  0  0  0  0  0  0  0  0  0
   33.9320    1.9870   27.2050 C   0  0  0  0  0  0  0  0  0  0  0  0
   34.9760    1.6980   28.0990 C   0  0  2  0  0  0  0  0  0  0  0  0
   36.1910    2.2510   27.9230 O   0  0  0  0  0  0  0  0  0  0  0  0
   34.7830    0.7840   29.1430 C   0  0  0  0  0  0  0  0  0  0  0  0
   33.5190    0.2030   29.3110 C   0  0  0  0  0  0  0  0  0  0  0  0
   31.6300   -1.8400   26.7020 C   0  0  0  0  0  0  0  0  0  0  0  0
   32.6480   -2.7670   26.4480 C   0  0  0  0  0  0  0  0  0  0  0  0
   33.0730   -3.0500   25.1480 C   0  0  0  0  0  0  0  0  0  0  0  0
   32.4960   -2.3520   24.0600 C   0  0  0  0  0  0  0  0  0  0  0  0
   31.4550   -1.4710   24.2950 C   0  0  0  0  0  0  0  0  0  0  0  0
   31.0470   -1.1710   25.6230 C   0  0  0  0  0  0  0  0  0  0  0  0
   32.9110   -2.5720   22.7850 O   0  0  0  0  0  0  0  0  0  0  0  0
   34.0020   -3.4000   22.3460 C   0  0  0  0  0  0  0  0  0  0  0  0
   33.6550   -4.3840   21.2060 C   0  0  0  0  0  0  0  0  0  0  0  0
   32.8000   -4.0120   20.0540 N   0  0  0  0  0  0  0  0  0  0  0  0
   31.5970   -3.2410   20.3190 C   0  0  0  0  0  0  0  0  0  0  0  0
   30.5570   -3.2640   19.1770 C   0  0  0  0  0  0  0  0  0  0  0  0
   31.1870   -2.9120   17.8130 C   0  0  0  0  0  0  0  0  0  0  0  0
   32.4130   -3.8420   17.6170 C   0  0  0  0  0  0  0  0  0  0  0  0
   33.4340   -3.6740   18.7760 C   0  0  0  0  0  0  0  0  0  0  0  0
  2  1  1  0
  3  2  1  0
  4  3  1  0
  5  4  1  0
  6  5  1  0
  7  6  1  0
  7  8  1  6
  9  7  1  0
 10  9  1  0
 10  4  1  0
 11 10  1  0
 11  1  1  0
  1 12  1  6
 13 12  1  0
 14 13  1  0
 15 14  1  0
 15 16  1  6
 17 15  1  0
 18 12  1  0
 18 17  1  0
  2 19  1  6
 20 19  1  0
 21 20  1  0
 22 21  1  0
 23 22  1  0
 24 23  1  0
 24 19  1  0
 25 22  1  0
 26 25  1  0
 27 26  1  0
 28 27  1  0
 29 28  1  0
 30 29  1  0
 31 30  1  0
 32 31  1  0
 33 32  1  0
 33 28  1  0
M  END
$$$$
4PXM
     RDKit          3D

 53 53  0  0  0  0  0  0  0  0999 V2000
   28.4600   16.8510    4.3300 N   0  0  0  0  0  0  0  0  0  0  0  0
   28.2550   16.3010    2.9420 C   0  0  2  0  0  0  0  0  0  0  0  0
   26.7830   16.1640    2.6420 C   0  0  0  0  0  0  0  0  0  0  0  0
   26.3180   16.4580    1.5300 O   0  0  0  0  0  0  0  0  0  0  0  0
   28.9090   14.9160    2.7410 C   0  0  2  0  0  0  0  0  0  0  0  0
   30.4420   15.0310    2.7820 C   0  0  0  0  0  0  0  0  0  0  0  0
   28.4870   14.3330    1.4090 C   0  0  0  0  0  0  0  0  0  0  0  0
   31.1630   13.7110    3.0270 C   0  0  0  0  0  0  0  0  0  0  0  0
   26.0280   15.6900    3.6200 N   0  0  0  0  0  0  0  0  0  0  0  0
   24.5810   15.4490    3.3660 C   0  0  2  0  0  0  0  0  0  0  0  0
   23.8900   16.7760    3.0440 C   0  0  0  0  0  0  0  0  0  0  0  0
   23.0420   16.8640    2.1570 O   0  0  0  0  0  0  0  0  0  0  0  0
   23.9290   14.8180    4.6050 C   0  0  0  0  0  0  0  0  0  0  0  0
   22.4220   14.7350    4.6100 C   0  0  0  0  0  0  0  0  0  0  0  0
   21.9080   13.9620    3.3730 C   0  0  0  0  0  0  0  0  0  0  0  0
   22.1190   13.9980    5.9010 C   0  0  0  0  0  0  0  0  0  0  0  0
   24.2180   17.7830    3.8280 N   0  0  0  0  0  0  0  0  0  0  0  0
   23.6590   19.1550    3.5950 C   0  0  2  0  0  0  0  0  0  0  0  0
   23.9670   19.6260    2.1810 C   0  0  0  0  0  0  0  0  0  0  0  0
   23.0710   20.0370    1.4330 O   0  0  0  0  0  0  0  0  0  0  0  0
   24.2400   20.1170    4.6130 C   0  0  0  0  0  0  0  0  0  0  0  0
   23.6430   21.4790    4.5500 C   0  0  0  0  0  0  0  0  0  0  0  0
   24.1460   22.4530    3.7680 N   0  0  0  0  0  0  0  0  0  0  0  0
   22.5460   22.0250    5.2000 C   0  0  0  0  0  0  0  0  0  0  0  0
   23.3720   23.5550    3.8640 C   0  0  0  0  0  0  0  0  0  0  0  0
   22.4190   23.3100    4.7670 N   0  0  0  0  0  0  0  0  0  0  0  0
   25.2200   19.4370    1.7590 N   0  0  0  0  0  0  0  0  0  0  0  0
   25.5990   19.7210    0.3590 C   0  0  2  0  0  0  0  0  0  0  0  0
   24.7990   18.8740   -0.6680 C   0  0  0  0  0  0  0  0  0  0  0  0
   24.2880   19.4030   -1.6600 O   0  0  0  0  0  0  0  0  0  0  0  0
   27.1400   19.5830    0.1760 C   0  0  0  0  0  0  0  0  0  0  0  0
   27.6340   19.7250   -1.2680 C   0  0  0  0  0  0  0  0  0  0  0  0
   27.6660   21.1810   -1.7020 C   0  0  0  0  0  0  0  0  0  0  0  0
   28.0600   21.3210   -3.1080 N   0  0  0  0  0  0  0  0  0  0  0  0
   29.3060   21.5390   -3.5240 C   0  0  0  0  0  0  0  0  0  0  0  0
   30.3030   21.6680   -2.6410 N   0  0  0  0  0  0  0  0  0  0  0  0
   29.5580   21.6520   -4.8250 N   0  0  0  0  0  0  0  0  0  0  0  0
   24.6950   17.5540   -0.4670 N   0  0  0  0  0  0  0  0  0  0  0  0
   23.9700   16.7370   -1.4620 C   0  0  2  0  0  0  0  0  0  0  0  0
   22.4660   17.0360   -1.5430 C   0  0  0  0  0  0  0  0  0  0  0  0
   21.8370   16.8140   -2.5810 O   0  0  0  0  0  0  0  0  0  0  0  0
   24.1820   15.2320   -1.2330 C   0  0  0  0  0  0  0  0  0  0  0  0
   25.6160   14.7200   -1.1680 C   0  0  0  0  0  0  0  0  0  0  0  0
   25.6170   13.1950   -1.1650 C   0  0  0  0  0  0  0  0  0  0  0  0
   26.4620   15.2840   -2.3200 C   0  0  0  0  0  0  0  0  0  0  0  0
   21.8890   17.5450   -0.4550 N   0  0  0  0  0  0  0  0  0  0  0  0
   20.4610   17.9120   -0.4650 C   0  0  2  0  0  0  0  0  0  0  0  0
   20.1610   19.1560   -1.3070 C   0  0  0  0  0  0  0  0  0  0  0  0
   19.2790   19.1180   -2.1660 O   0  0  0  0  0  0  0  0  0  0  0  0
   19.9650   18.1070    0.9540 C   0  0  0  0  0  0  0  0  0  0  0  0
   19.6800   16.7340    1.5970 C   0  0  0  0  0  0  0  0  0  0  0  0
   19.5400   16.9190    3.1010 C   0  0  0  0  0  0  0  0  0  0  0  0
   18.3910   16.1780    0.9630 C   0  0  0  0  0  0  0  0  0  0  0  0
  2  1  1  1
  3  2  1  0
  4  3  2  0
  5  2  1  0
  6  5  1  0
  5  7  1  6
  8  6  1  0
  9  3  1  0
 10  9  1  0
 11 10  1  0
 12 11  2  0
 10 13  1  1
 14 13  1  0
 15 14  1  0
 16 14  1  0
 17 11  1  0
 18 17  1  0
 19 18  1  0
 20 19  2  0
 18 21  1  1
 22 21  1  0
 23 22  1  0
 24 22  2  0
 25 23  2  0
 26 25  1  0
 26 24  1  0
 27 19  1  0
 28 27  1  0
 29 28  1  0
 30 29  2  0
 28 31  1  1
 32 31  1  0
 33 32  1  0
 34 33  1  0
 35 34  1  0
 36 35  1  0
 37 35  2  0
 38 29  1  0
 39 38  1  0
 40 39  1  0
 41 40  2  0
 39 42  1  1
 43 42  1  0
 44 43  1  0
 45 43  1  0
 46 40  1  0
 47 46  1  0
 48 47  1  0
 49 48  2  0
 47 50  1  1
 51 50  1  0
 52 51  1  0
 53 51  1  0
M  END
$$$$
6OWC
     RDKit          3D

 76 75  0  0  0  0  0  0  0  0999 V2000
   46.9000  -30.3080   -4.9940 N   0  0  0  0  0  0  0  0  0  0  0  0
   46.0810  -30.6880   -6.1440 C   0  0  2  0  0  0  0  0  0  0  0  0
   46.4090  -32.0270   -6.8870 C   0  0  0  0  0  0  0  0  0  0  0  0
   45.6470  -32.4040   -7.8000 O   0  0  0  0  0  0  0  0  0  0  0  0
   46.1330  -29.5710   -7.1670 C   0  0  0  0  0  0  0  0  0  0  0  0
   47.4200  -29.5310   -7.7420 O   0  0  0  0  0  0  0  0  0  0  0  0
   47.5000  -32.7250   -6.5350 N   0  0  0  0  0  0  0  0  0  0  0  0
   47.8380  -34.0330   -7.1700 C   0  0  2  0  0  0  0  0  0  0  0  0
   47.3030  -35.2060   -6.3230 C   0  0  0  0  0  0  0  0  0  0  0  0
   47.0600  -36.3180   -6.8230 O   0  0  0  0  0  0  0  0  0  0  0  0
   49.3600  -34.1760   -7.4430 C   0  0  0  0  0  0  0  0  0  0  0  0
   49.8120  -33.5320   -8.7790 C   0  0  0  0  0  0  0  0  0  0  0  0
   49.0180  -32.8590   -9.4680 O   0  0  0  0  0  0  0  0  0  0  0  0
   50.9930  -33.7050   -9.1570 O   0  0  0  0  0  0  0  0  0  0  0  0
   47.1980  -34.9510   -5.0260 N   0  0  0  0  0  0  0  0  0  0  0  0
   46.1480  -35.4830   -4.1860 C   0  0  2  0  0  0  0  0  0  0  0  0
   44.7840  -35.5410   -4.8440 C   0  0  0  0  0  0  0  0  0  0  0  0
   44.1850  -36.5970   -4.9990 O   0  0  0  0  0  0  0  0  0  0  0  0
   45.9840  -34.5530   -2.9760 C   0  0  0  0  0  0  0  0  0  0  0  0
   46.5070  -35.1560   -1.7000 C   0  0  0  0  0  0  0  0  0  0  0  0
   45.5310  -36.2420   -1.2970 C   0  0  0  0  0  0  0  0  0  0  0  0
   47.9420  -35.6880   -1.8470 C   0  0  0  0  0  0  0  0  0  0  0  0
   44.3020  -34.3720   -5.2020 N   0  0  0  0  0  0  0  0  0  0  0  0
   42.8740  -34.1480   -5.4140 C   0  0  2  0  0  0  0  0  0  0  0  0
   42.5170  -35.0570   -6.5500 C   0  0  0  0  0  0  0  0  0  0  0  0
   41.6150  -35.9100   -6.4440 O   0  0  0  0  0  0  0  0  0  0  0  0
   42.6180  -32.6600   -5.7690 C   0  0  0  0  0  0  0  0  0  0  0  0
   41.5330  -31.7650   -5.1410 C   0  0  0  0  0  0  0  0  0  0  0  0
   41.0630  -32.1820   -3.7500 C   0  0  0  0  0  0  0  0  0  0  0  0
   41.9990  -30.3080   -5.0910 C   0  0  0  0  0  0  0  0  0  0  0  0
   43.3110  -34.9120   -7.6130 N   0  0  0  0  0  0  0  0  0  0  0  0
   43.0690  -35.5860   -8.8630 C   0  0  2  0  0  0  0  0  0  0  0  0
   43.0270  -37.0740   -8.5680 C   0  0  0  0  0  0  0  0  0  0  0  0
   42.1480  -37.8090   -9.0720 O   0  0  0  0  0  0  0  0  0  0  0  0
   44.1810  -35.2380   -9.8970 C   0  0  0  0  0  0  0  0  0  0  0  0
   43.8920  -35.2970  -11.4000 C   0  0  0  0  0  0  0  0  0  0  0  0
   42.7780  -34.3520  -11.7910 C   0  0  0  0  0  0  0  0  0  0  0  0
   45.1200  -34.9420  -12.2120 C   0  0  0  0  0  0  0  0  0  0  0  0
   43.9740  -37.5150   -7.7420 N   0  0  0  0  0  0  0  0  0  0  0  0
   44.1880  -38.9440   -7.6130 C   0  0  2  0  0  0  0  0  0  0  0  0
   43.2380  -39.5800   -6.6270 C   0  0  0  0  0  0  0  0  0  0  0  0
   42.6880  -40.6560   -6.8780 O   0  0  0  0  0  0  0  0  0  0  0  0
   45.6690  -39.2070   -7.2740 C   0  0  0  0  0  0  0  0  0  0  0  0
   46.1610  -40.4590   -7.8620 C   0  0  0  0  0  0  0  0  0  0  0  0
   45.9960  -40.5430   -9.3530 C   0  0  0  0  0  0  0  0  0  0  0  0
   46.3510  -39.5810  -10.0580 O   0  0  0  0  0  0  0  0  0  0  0  0
   45.5280  -41.5850   -9.8000 O   0  0  0  0  0  0  0  0  0  0  0  0
   42.9830  -38.8920   -5.5300 N   0  0  0  0  0  0  0  0  0  0  0  0
   41.8670  -39.2440   -4.6600 C   0  0  2  0  0  0  0  0  0  0  0  0
   40.5010  -39.2830   -5.3510 C   0  0  0  0  0  0  0  0  0  0  0  0
   39.6780  -40.1700   -5.0510 O   0  0  0  0  0  0  0  0  0  0  0  0
   41.8030  -38.2910   -3.4960 C   0  0  0  0  0  0  0  0  0  0  0  0
   42.8620  -38.5190   -2.4260 C   0  0  0  0  0  0  0  0  0  0  0  0
   42.0130  -38.2290   -0.8520 S   0  0  0  0  0  0  0  0  0  0  0  0
   43.3760  -37.8550    0.2160 C   0  0  0  0  0  0  0  0  0  0  0  0
   40.2430  -38.3400   -6.2640 N   0  0  0  0  0  0  0  0  0  0  0  0
   38.9630  -38.2760   -6.9380 C   0  0  2  0  0  0  0  0  0  0  0  0
   38.8850  -39.3880   -7.9650 C   0  0  0  0  0  0  0  0  0  0  0  0
   37.7860  -39.7550   -8.4060 O   0  0  0  0  0  0  0  0  0  0  0  0
   38.7180  -36.8980   -7.5640 C   0  0  0  0  0  0  0  0  0  0  0  0
   38.4490  -35.7360   -6.5930 C   0  0  0  0  0  0  0  0  0  0  0  0
   38.5980  -34.4220   -7.3430 C   0  0  0  0  0  0  0  0  0  0  0  0
   37.1080  -35.8540   -5.8940 C   0  0  0  0  0  0  0  0  0  0  0  0
   40.0530  -39.9270   -8.3310 N   0  0  0  0  0  0  0  0  0  0  0  0
   40.1880  -41.3530   -8.6590 C   0  0  2  0  0  0  0  0  0  0  0  0
   39.9040  -41.4830  -10.1320 C   0  0  0  0  0  0  0  0  0  0  0  0
   38.9360  -42.1270  -10.5360 O   0  0  0  0  0  0  0  0  0  0  0  0
   39.2540  -42.2500   -7.7830 C   0  0  0  0  0  0  0  0  0  0  0  0
   39.9830  -43.4030   -7.1140 C   0  0  0  0  0  0  0  0  0  0  0  0
   41.0200  -43.1550   -6.4430 O   0  0  0  0  0  0  0  0  0  0  0  0
   39.4710  -44.5460   -7.2190 O   0  0  0  0  0  0  0  0  0  0  0  0
   40.7510  -40.8210  -10.9270 N   0  0  0  0  0  0  0  0  0  0  0  0
   40.6480  -40.8750  -12.3700 C   0  0  2  0  0  0  0  0  0  0  0  0
   41.8290  -40.1700  -13.0150 C   0  0  0  0  0  0  0  0  0  0  0  0
   42.9690  -40.4420  -12.6850 O   0  0  0  0  0  0  0  0  0  0  0  0
   39.3340  -40.2550  -12.8410 C   0  0  0  0  0  0  0  0  0  0  0  0
  2  1  1  1
  3  2  1  0
  4  3  2  0
  5  2  1  0
  6  5  1  0
  7  3  1  0
  8  7  1  0
  9  8  1  0
 10  9  2  0
  8 11  1  1
 12 11  1  0
 13 12  2  0
 14 12  1  0
 15  9  1  0
 16 15  1  0
 17 16  1  0
 18 17  2  0
 16 19  1  1
 20 19  1  0
 21 20  1  0
 22 20  1  0
 23 17  1  0
 24 23  1  0
 25 24  1  0
 26 25  2  0
 24 27  1  6
 28 27  1  0
 29 28  1  0
 30 28  1  0
 31 25  1  0
 32 31  1  0
 33 32  1  0
 34 33  2  0
 32 35  1  6
 36 35  1  0
 37 36  1  0
 38 36  1  0
 39 33  1  0
 40 39  1  0
 41 40  1  0
 42 41  2  0
 40 43  1  1
 44 43  1  0
 45 44  1  0
 46 45  2  0
 47 45  1  0
 48 41  1  0
 49 48  1  0
 50 49  1  0
 51 50  2  0
 49 52  1  1
 53 52  1  0
 54 53  1  0
 55 54  1  0
 56 50  1  0
 57 56  1  0
 58 57  1  0
 59 58  2  0
 57 60  1  6
 61 60  1  0
 62 61  1  0
 63 61  1  0
 64 58  1  0
 65 64  1  0
 66 65  1  0
 67 66  2  0
 65 68  1  1
 69 68  1  0
 70 69  2  0
 71 69  1  0
 72 66  1  0
 73 72  1  0
 74 73  1  0
 75 74  2  0
 73 76  1  1
M  END
$$$$
5DY8
     RDKit          3D

 79 79  0  0  0  0  0  0  0  0999 V2000
    7.8190   -1.7880   35.1680 N   0  0  0  0  0  0  0  0  0  0  0  0
    7.7790   -0.4990   34.4840 C   0  0  2  0  0  0  0  0  0  0  0  0
    6.7830    0.4420   35.1570 C   0  0  0  0  0  0  0  0  0  0  0  0
    5.5770    0.1920   35.1550 O   0  0  0  0  0  0  0  0  0  0  0  0
    7.4260   -0.6890   33.0100 C   0  0  0  0  0  0  0  0  0  0  0  0
    7.5570    0.5710   32.1790 C   0  0  0  0  0  0  0  0  0  0  0  0
    7.9790    0.2460   30.7580 C   0  0  0  0  0  0  0  0  0  0  0  0
    8.1530    1.5110   29.9430 C   0  0  0  0  0  0  0  0  0  0  0  0
    8.6920    1.2370   28.5800 N   0  0  0  0  0  0  0  0  0  0  0  0
    7.3030    1.5280   35.7220 N   0  0  0  0  0  0  0  0  0  0  0  0
    6.5190    2.4360   36.5580 C   0  0  2  0  0  0  0  0  0  0  0  0
    5.3290    3.0640   35.8350 C   0  0  0  0  0  0  0  0  0  0  0  0
    4.2190    3.0890   36.3670 O   0  0  0  0  0  0  0  0  0  0  0  0
    7.4100    3.5640   37.1220 C   0  0  2  0  0  0  0  0  0  0  0  0
    8.5810    2.9680   37.9090 C   0  0  0  0  0  0  0  0  0  0  0  0
    6.5980    4.5040   38.0000 C   0  0  0  0  0  0  0  0  0  0  0  0
    9.4960    4.0040   38.5270 C   0  0  0  0  0  0  0  0  0  0  0  0
    5.5590    3.5660   34.6260 N   0  0  0  0  0  0  0  0  0  0  0  0
    4.5030    4.2270   33.8620 C   0  0  2  0  0  0  0  0  0  0  0  0
    3.3630    3.2660   33.5270 C   0  0  0  0  0  0  0  0  0  0  0  0
    2.1890    3.6250   33.6340 O   0  0  0  0  0  0  0  0  0  0  0  0
    5.0710    4.8370   32.5790 C   0  0  0  0  0  0  0  0  0  0  0  0
    4.0760    5.5640   31.6770 C   0  0  0  0  0  0  0  0  0  0  0  0
    3.3610    6.6700   32.4360 C   0  0  0  0  0  0  0  0  0  0  0  0
    4.7760    6.1230   30.4440 C   0  0  0  0  0  0  0  0  0  0  0  0
    3.7130    2.0480   33.1250 N   0  0  0  0  0  0  0  0  0  0  0  0
    2.7170    1.0290   32.8120 C   0  0  2  0  0  0  0  0  0  0  0  0
    1.8990    0.6790   34.0490 C   0  0  0  0  0  0  0  0  0  0  0  0
    0.6960    0.4330   33.9620 O   0  0  0  0  0  0  0  0  0  0  0  0
    3.3870   -0.2270   32.2500 C   0  0  0  0  0  0  0  0  0  0  0  0
    2.4290   -1.3320   31.9280 C   0  0  0  0  0  0  0  0  0  0  0  0
    2.0700   -2.2960   32.8460 N   0  0  0  0  0  0  0  0  0  0  0  0
    1.7560   -1.6260   30.7910 C   0  0  0  0  0  0  0  0  0  0  0  0
    1.2180   -3.1370   32.2870 C   0  0  0  0  0  0  0  0  0  0  0  0
    1.0110   -2.7530   31.0400 N   0  0  0  0  0  0  0  0  0  0  0  0
    2.5610    0.6680   35.2010 N   0  0  0  0  0  0  0  0  0  0  0  0
    1.9060    0.3530   36.4650 C   0  0  2  0  0  0  0  0  0  0  0  0
    0.8680    1.4080   36.8270 C   0  0  0  0  0  0  0  0  0  0  0  0
   -0.2890    1.0860   37.1040 O   0  0  0  0  0  0  0  0  0  0  0  0
    2.9360    0.2320   37.5890 C   0  0  0  0  0  0  0  0  0  0  0  0
    2.3520   -0.2390   38.9120 C   0  0  0  0  0  0  0  0  0  0  0  0
    3.3780   -0.1720   40.0350 C   0  0  0  0  0  0  0  0  0  0  0  0
    3.3320    1.1010   40.7520 N   0  0  0  0  0  0  0  0  0  0  0  0
    4.4000    1.8340   41.0480 C   0  0  0  0  0  0  0  0  0  0  0  0
    5.6100    1.4280   40.6860 N   0  0  0  0  0  0  0  0  0  0  0  0
    4.2600    2.9770   41.7090 N   0  0  0  0  0  0  0  0  0  0  0  0
    1.2930    2.6690   36.8220 N   0  0  0  0  0  0  0  0  0  0  0  0
    0.4320    3.7830   37.2010 C   0  0  2  0  0  0  0  0  0  0  0  0
   -0.7540    3.9340   36.2560 C   0  0  0  0  0  0  0  0  0  0  0  0
   -1.8480    4.3100   36.6740 O   0  0  0  0  0  0  0  0  0  0  0  0
    1.2370    5.0830   37.2470 C   0  0  0  0  0  0  0  0  0  0  0  0
    2.4020    5.0860   38.2420 C   0  0  0  0  0  0  0  0  0  0  0  0
    3.1150    6.4300   38.2510 C   0  0  0  0  0  0  0  0  0  0  0  0
    1.9170    4.7220   39.6370 C   0  0  0  0  0  0  0  0  0  0  0  0
   -0.5310    3.6370   34.9800 N   0  0  0  0  0  0  0  0  0  0  0  0
   -1.5990    3.6850   33.9900 C   0  0  2  0  0  0  0  0  0  0  0  0
   -2.5920    2.5470   34.1970 C   0  0  0  0  0  0  0  0  0  0  0  0
   -3.7970    2.7200   34.0160 O   0  0  0  0  0  0  0  0  0  0  0  0
   -1.0220    3.6260   32.5740 C   0  0  0  0  0  0  0  0  0  0  0  0
   -0.4860    4.9340   31.9910 C   0  0  0  0  0  0  0  0  0  0  0  0
    0.2830    4.6750   30.7040 C   0  0  0  0  0  0  0  0  0  0  0  0
   -1.6350    5.9000   31.7440 C   0  0  0  0  0  0  0  0  0  0  0  0
   -2.0770    1.3840   34.5830 N   0  0  0  0  0  0  0  0  0  0  0  0
   -2.9040    0.1940   34.7400 C   0  0  2  0  0  0  0  0  0  0  0  0
   -3.7790    0.2730   35.9890 C   0  0  0  0  0  0  0  0  0  0  0  0
   -4.8220   -0.3780   36.0680 O   0  0  0  0  0  0  0  0  0  0  0  0
   -2.0240   -1.0570   34.7910 C   0  0  0  0  0  0  0  0  0  0  0  0
   -2.7340   -2.3310   34.3780 C   0  0  0  0  0  0  0  0  0  0  0  0
   -1.8060   -3.5280   34.3290 C   0  0  0  0  0  0  0  0  0  0  0  0
   -0.8680   -3.6350   35.1190 O   0  0  0  0  0  0  0  0  0  0  0  0
   -2.0610   -4.4360   33.3940 N   0  0  0  0  0  0  0  0  0  0  0  0
   -3.3490    1.0720   36.9620 N   0  0  0  0  0  0  0  0  0  0  0  0
   -4.1030    1.2540   38.1980 C   0  0  2  0  0  0  0  0  0  0  0  0
   -5.4720    1.8690   37.9300 C   0  0  0  0  0  0  0  0  0  0  0  0
   -5.5860    3.0720   37.6930 O   0  0  0  0  0  0  0  0  0  0  0  0
   -3.3240    2.1310   39.1820 C   0  0  0  0  0  0  0  0  0  0  0  0
   -2.0170    1.5010   39.6190 C   0  0  0  0  0  0  0  0  0  0  0  0
   -1.9360    0.2540   39.6600 O   0  0  0  0  0  0  0  0  0  0  0  0
   -1.0690    2.2540   39.9250 O   0  0  0  0  0  0  0  0  0  0  0  0
  2  1  1  1
  3  2  1  0
  4  3  2  0
  5  2  1  0
  6  5  1  0
  7  6  1  0
  8  7  1  0
  9  8  1  0
 10  3  1  0
 11 10  1  6
 12 11  1  0
 13 12  2  0
 14 11  1  0
 15 14  1  0
 14 16  1  1
 17 15  1  0
 18 12  1  0
 19 18  1  0
 20 19  1  0
 21 20  2  0
 19 22  1  6
 23 22  1  0
 24 23  1  0
 25 23  1  0
 26 20  1  0
 27 26  1  0
 28 27  1  0
 29 28  2  0
 27 30  1  1
 31 30  1  0
 32 31  1  0
 33 31  2  0
 34 32  2  0
 35 34  1  0
 35 33  1  0
 36 28  1  0
 37 36  1  0
 38 37  1  0
 39 38  2  0
 37 40  1  1
 41 40  1  0
 42 41  1  0
 43 42  1  0
 44 43  1  0
 45 44  1  0
 46 44  2  0
 47 38  1  0
 48 47  1  0
 49 48  1  0
 50 49  2  0
 48 51  1  6
 52 51  1  0
 53 52  1  0
 54 52  1  0
 55 49  1  0
 56 55  1  0
 57 56  1  0
 58 57  2  0
 56 59  1  6
 60 59  1  0
 61 60  1  0
 62 60  1  0
 63 57  1  0
 64 63  1  0
 65 64  1  0
 66 65  2  0
 64 67  1  1
 68 67  1  0
 69 68  1  0
 70 69  2  0
 71 69  1  0
 72 65  1  0
 73 72  1  0
 74 73  1  0
 75 74  2  0
 73 76  1  1
 77 76  1  0
 78 77  2  0
 79 77  1  0
M  END
$$$$
6D0F
     RDKit          3D

 72 72  0  0  0  0  0  0  0  0999 V2000
  -17.1440   -6.1060   42.5040 N   0  0  0  0  0  0  0  0  0  0  0  0
  -16.2450   -7.0420   41.8370 C   0  0  2  0  0  0  0  0  0  0  0  0
  -15.9160   -8.2320   42.7350 C   0  0  0  0  0  0  0  0  0  0  0  0
  -16.4470   -8.3540   43.8390 O   0  0  0  0  0  0  0  0  0  0  0  0
  -14.9620   -6.3370   41.4010 C   0  0  0  0  0  0  0  0  0  0  0  0
  -15.0360   -9.1040   42.2530 N   0  0  0  0  0  0  0  0  0  0  0  0
  -14.6860  -10.3270   42.9690 C   0  0  2  0  0  0  0  0  0  0  0  0
  -13.8670  -10.1290   44.2500 C   0  0  0  0  0  0  0  0  0  0  0  0
  -14.2440  -10.6310   45.3090 O   0  0  0  0  0  0  0  0  0  0  0  0
  -13.9270  -11.2620   42.0240 C   0  0  0  0  0  0  0  0  0  0  0  0
  -12.7500   -9.4100   44.1550 N   0  0  0  0  0  0  0  0  0  0  0  0
  -11.8450   -9.2340   45.2950 C   0  0  2  0  0  0  0  0  0  0  0  0
  -12.5160   -8.5210   46.4660 C   0  0  0  0  0  0  0  0  0  0  0  0
  -12.3370   -8.8960   47.6260 O   0  0  0  0  0  0  0  0  0  0  0  0
  -10.5860   -8.4710   44.8800 C   0  0  0  0  0  0  0  0  0  0  0  0
   -9.5740   -8.2620   46.0110 C   0  0  0  0  0  0  0  0  0  0  0  0
   -9.2390   -9.5920   46.6710 C   0  0  0  0  0  0  0  0  0  0  0  0
   -8.3140   -7.5870   45.4990 C   0  0  0  0  0  0  0  0  0  0  0  0
  -13.2890   -7.4910   46.1480 N   0  0  0  0  0  0  0  0  0  0  0  0
  -13.9300   -6.6550   47.1530 C   0  0  2  0  0  0  0  0  0  0  0  0
  -15.0350   -7.4000   47.8980 C   0  0  0  0  0  0  0  0  0  0  0  0
  -15.4200   -7.0130   49.0000 O   0  0  0  0  0  0  0  0  0  0  0  0
  -14.4880   -5.3920   46.4960 C   0  0  0  0  0  0  0  0  0  0  0  0
  -14.9720   -4.2680   47.4080 C   0  0  0  0  0  0  0  0  0  0  0  0
  -13.8970   -3.8860   48.3980 C   0  0  0  0  0  0  0  0  0  0  0  0
  -15.3660   -3.0720   46.5690 C   0  0  0  0  0  0  0  0  0  0  0  0
  -15.5240   -8.4830   47.3050 N   0  0  0  0  0  0  0  0  0  0  0  0
  -16.5430   -9.3010   47.9540 C   0  0  2  0  0  0  0  0  0  0  0  0
  -15.9610  -10.0240   49.1620 C   0  0  0  0  0  0  0  0  0  0  0  0
  -16.6000  -10.1010   50.2120 O   0  0  0  0  0  0  0  0  0  0  0  0
  -17.1330  -10.3110   46.9680 C   0  0  0  0  0  0  0  0  0  0  0  0
  -14.7510  -10.5550   49.0140 N   0  0  0  0  0  0  0  0  0  0  0  0
  -14.0830  -11.2220   50.1250 C   0  0  2  0  0  0  0  0  0  0  0  0
  -13.7320  -10.2130   51.2170 C   0  0  0  0  0  0  0  0  0  0  0  0
  -13.6710  -10.5560   52.3990 O   0  0  0  0  0  0  0  0  0  0  0  0
  -12.8230  -11.9450   49.6440 C   0  0  0  0  0  0  0  0  0  0  0  0
  -13.5090   -8.9660   50.8090 N   0  0  0  0  0  0  0  0  0  0  0  0
  -13.2210   -7.8840   51.7440 C   0  0  2  0  0  0  0  0  0  0  0  0
  -14.4510   -7.4670   52.5440 C   0  0  0  0  0  0  0  0  0  0  0  0
  -14.3670   -7.2370   53.7520 O   0  0  0  0  0  0  0  0  0  0  0  0
  -12.6630   -6.6730   50.9960 C   0  0  0  0  0  0  0  0  0  0  0  0
  -11.3160   -6.9080   50.3370 C   0  0  0  0  0  0  0  0  0  0  0  0
  -10.0480   -7.4450   51.4980 S   0  0  0  0  0  0  0  0  0  0  0  0
   -8.5640   -7.0590   50.5740 C   0  0  0  0  0  0  0  0  0  0  0  0
  -15.5920   -7.3670   51.8650 N   0  0  0  0  0  0  0  0  0  0  0  0
  -16.8420   -6.9640   52.5130 C   0  0  2  0  0  0  0  0  0  0  0  0
  -17.4240   -8.0650   53.3890 C   0  0  0  0  0  0  0  0  0  0  0  0
  -17.9980   -7.7860   54.4400 O   0  0  0  0  0  0  0  0  0  0  0  0
  -17.8860   -6.5240   51.4790 C   0  0  0  0  0  0  0  0  0  0  0  0
  -17.9570   -5.0370   51.1180 C   0  0  0  0  0  0  0  0  0  0  0  0
  -16.6190   -4.5150   50.6540 C   0  0  0  0  0  0  0  0  0  0  0  0
  -19.0270   -4.7940   50.0640 C   0  0  0  0  0  0  0  0  0  0  0  0
  -17.2800   -9.3130   52.9580 N   0  0  0  0  0  0  0  0  0  0  0  0
  -17.8460  -10.4270   53.7080 C   0  0  2  0  0  0  0  0  0  0  0  0
  -17.0340  -10.7140   54.9680 C   0  0  0  0  0  0  0  0  0  0  0  0
  -17.5460  -11.2960   55.9230 O   0  0  0  0  0  0  0  0  0  0  0  0
  -17.9240  -11.6790   52.8310 C   0  0  0  0  0  0  0  0  0  0  0  0
  -15.7670  -10.3070   54.9630 N   0  0  0  0  0  0  0  0  0  0  0  0
  -14.9110  -10.4000   56.1470 C   0  0  2  0  0  0  0  0  0  0  0  0
  -15.4570   -9.6130   57.3380 C   0  0  0  0  0  0  0  0  0  0  0  0
  -15.2540   -9.9920   58.4910 O   0  0  0  0  0  0  0  0  0  0  0  0
  -13.4990   -9.9300   55.8140 C   0  0  0  0  0  0  0  0  0  0  0  0
  -16.1530   -8.5170   57.0540 N   0  0  0  0  0  0  0  0  0  0  0  0
  -16.7480   -7.6960   58.1040 C   0  0  2  0  0  0  0  0  0  0  0  0
  -18.2120   -8.0550   58.3350 C   0  0  0  0  0  0  0  0  0  0  0  0
  -18.9170   -7.3760   59.0820 O   0  0  0  0  0  0  0  0  0  0  0  0
  -16.6190   -6.2140   57.7520 C   0  0  0  0  0  0  0  0  0  0  0  0
  -15.2090   -5.7090   57.7770 C   0  0  0  0  0  0  0  0  0  0  0  0
  -14.6610   -5.0870   58.8780 N   0  0  0  0  0  0  0  0  0  0  0  0
  -14.2350   -5.7370   56.8370 C   0  0  0  0  0  0  0  0  0  0  0  0
  -13.4110   -4.7510   58.6140 C   0  0  0  0  0  0  0  0  0  0  0  0
  -13.1280   -5.1350   57.3830 N   0  0  0  0  0  0  0  0  0  0  0  0
  2  1  1  0
  3  2  1  0
  4  3  2  0
  2  5  1  1
  6  3  1  0
  7  6  1  0
  8  7  1  0
  9  8  2  0
  7 10  1  6
 11  8  1  0
 12 11  1  0
 13 12  1  0
 14 13  2  0
 12 15  1  6
 16 15  1  0
 17 16  1  0
 18 16  1  0
 19 13  1  0
 20 19  1  0
 21 20  1  0
 22 21  2  0
 20 23  1  6
 24 23  1  0
 25 24  1  0
 26 24  1  0
 27 21  1  0
 28 27  1  0
 29 28  1  0
 30 29  2  0
 28 31  1  6
 32 29  1  0
 33 32  1  0
 34 33  1  0
 35 34  2  0
 33 36  1  6
 37 34  1  0
 38 37  1  0
 39 38  1  0
 40 39  2  0
 38 41  1  6
 42 41  1  0
 43 42  1  0
 44 43  1  0
 45 39  1  0
 46 45  1  0
 47 46  1  0
 48 47  2  0
 46 49  1  6
 50 49  1  0
 51 50  1  0
 52 50  1  0
 53 47  1  0
 54 53  1  0
 55 54  1  0
 56 55  2  0
 54 57  1  6
 58 55  1  0
 59 58  1  0
 60 59  1  0
 61 60  2  0
 59 62  1  6
 63 60  1  0
 64 63  1  0
 65 64  1  0
 66 65  2  0
 64 67  1  6
 68 67  1  0
 69 68  1  0
 70 68  2  0
 71 69  2  0
 72 70  1  0
 72 71  1  0
M  END
$$$$
4IV2
     RDKit          3D

 79 79  0  0  0  0  0  0  0  0999 V2000
    8.1860   -1.5340   34.8000 N   0  0  0  0  0  0  0  0  0  0  0  0
    8.0550   -0.2700   34.0800 C   0  0  2  0  0  0  0  0  0  0  0  0
    7.1510    0.7060   34.8350 C   0  0  0  0  0  0  0  0  0  0  0  0
    5.9380    0.5120   34.9120 O   0  0  0  0  0  0  0  0  0  0  0  0
    7.5090   -0.5140   32.6750 C   0  0  0  0  0  0  0  0  0  0  0  0
    7.4540    0.7310   31.8000 C   0  0  0  0  0  0  0  0  0  0  0  0
    8.4970    0.6720   30.6950 C   0  0  0  0  0  0  0  0  0  0  0  0
    8.0430    1.4540   29.4730 C   0  0  0  0  0  0  0  0  0  0  0  0
    8.9180    1.2210   28.2830 N   0  0  0  0  0  0  0  0  0  0  0  0
    7.7490    1.7590   35.3830 N   0  0  0  0  0  0  0  0  0  0  0  0
    7.0230    2.6810   36.2490 C   0  0  2  0  0  0  0  0  0  0  0  0
    5.7830    3.2570   35.5780 C   0  0  0  0  0  0  0  0  0  0  0  0
    4.6750    3.1370   36.0960 O   0  0  0  0  0  0  0  0  0  0  0  0
    7.9160    3.8350   36.7270 C   0  0  2  0  0  0  0  0  0  0  0  0
    9.2330    3.2910   37.2900 C   0  0  0  0  0  0  0  0  0  0  0  0
    7.1840    4.6680   37.7640 C   0  0  0  0  0  0  0  0  0  0  0  0
   10.2360    4.3710   37.6600 C   0  0  0  0  0  0  0  0  0  0  0  0
    5.9740    3.8870   34.4250 N   0  0  0  0  0  0  0  0  0  0  0  0
    4.8630    4.5060   33.7160 C   0  0  2  0  0  0  0  0  0  0  0  0
    3.7400    3.5030   33.4670 C   0  0  0  0  0  0  0  0  0  0  0  0
    2.5570    3.8240   33.6120 O   0  0  0  0  0  0  0  0  0  0  0  0
    5.3400    5.0940   32.3930 C   0  0  0  0  0  0  0  0  0  0  0  0
    4.2420    5.6840   31.5150 C   0  0  0  0  0  0  0  0  0  0  0  0
    3.3940    6.6860   32.3050 C   0  0  0  0  0  0  0  0  0  0  0  0
    4.8620    6.3290   30.2860 C   0  0  0  0  0  0  0  0  0  0  0  0
    4.1240    2.2880   33.0930 N   0  0  0  0  0  0  0  0  0  0  0  0
    3.1720    1.2150   32.8370 C   0  0  2  0  0  0  0  0  0  0  0  0
    2.2780    0.9650   34.0520 C   0  0  0  0  0  0  0  0  0  0  0  0
    1.0550    0.8880   33.9350 O   0  0  0  0  0  0  0  0  0  0  0  0
    3.9280   -0.0630   32.4650 C   0  0  0  0  0  0  0  0  0  0  0  0
    3.0470   -1.1810   32.0030 C   0  0  0  0  0  0  0  0  0  0  0  0
    2.5490   -2.1390   32.8600 N   0  0  0  0  0  0  0  0  0  0  0  0
    2.5860   -1.5020   30.7710 C   0  0  0  0  0  0  0  0  0  0  0  0
    1.8160   -2.9990   32.1760 C   0  0  0  0  0  0  0  0  0  0  0  0
    1.8220   -2.6350   30.9070 N   0  0  0  0  0  0  0  0  0  0  0  0
    2.9000    0.8480   35.2180 N   0  0  0  0  0  0  0  0  0  0  0  0
    2.1740    0.6080   36.4570 C   0  0  2  0  0  0  0  0  0  0  0  0
    1.2490    1.7700   36.8220 C   0  0  0  0  0  0  0  0  0  0  0  0
    0.1000    1.5610   37.2130 O   0  0  0  0  0  0  0  0  0  0  0  0
    3.1540    0.3350   37.6000 C   0  0  0  0  0  0  0  0  0  0  0  0
    2.5460    0.4880   38.9830 C   0  0  0  0  0  0  0  0  0  0  0  0
    3.4320   -0.1120   40.0680 C   0  0  0  0  0  0  0  0  0  0  0  0
    4.6640    0.6440   40.2750 N   0  0  0  0  0  0  0  0  0  0  0  0
    4.7360    1.7670   40.9810 C   0  0  0  0  0  0  0  0  0  0  0  0
    3.6420    2.2720   41.5350 N   0  0  0  0  0  0  0  0  0  0  0  0
    5.8990    2.3890   41.1280 N   0  0  0  0  0  0  0  0  0  0  0  0
    1.7590    2.9920   36.6990 N   0  0  0  0  0  0  0  0  0  0  0  0
    0.9890    4.1790   37.0480 C   0  0  2  0  0  0  0  0  0  0  0  0
   -0.2450    4.2740   36.1750 C   0  0  0  0  0  0  0  0  0  0  0  0
   -1.3140    4.6840   36.6290 O   0  0  0  0  0  0  0  0  0  0  0  0
    1.8290    5.4380   36.8680 C   0  0  0  0  0  0  0  0  0  0  0  0
    3.0410    5.6030   37.7830 C   0  0  0  0  0  0  0  0  0  0  0  0
    3.8470    6.8170   37.3600 C   0  0  0  0  0  0  0  0  0  0  0  0
    2.5920    5.7300   39.2280 C   0  0  0  0  0  0  0  0  0  0  0  0
   -0.0860    3.8980   34.9110 N   0  0  0  0  0  0  0  0  0  0  0  0
   -1.1940    3.9440   33.9700 C   0  0  2  0  0  0  0  0  0  0  0  0
   -2.2790    2.9590   34.3760 C   0  0  0  0  0  0  0  0  0  0  0  0
   -3.4660    3.2550   34.2700 O   0  0  0  0  0  0  0  0  0  0  0  0
   -0.7030    3.6730   32.5460 C   0  0  0  0  0  0  0  0  0  0  0  0
   -0.2100    4.9370   31.8390 C   0  0  0  0  0  0  0  0  0  0  0  0
    0.4700    4.6200   30.5200 C   0  0  0  0  0  0  0  0  0  0  0  0
   -1.3780    5.8880   31.6290 C   0  0  0  0  0  0  0  0  0  0  0  0
   -1.8630    1.7910   34.8560 N   0  0  0  0  0  0  0  0  0  0  0  0
   -2.8020    0.7710   35.3090 C   0  0  2  0  0  0  0  0  0  0  0  0
   -3.5810    1.2100   36.5480 C   0  0  0  0  0  0  0  0  0  0  0  0
   -4.7710    0.9220   36.6740 O   0  0  0  0  0  0  0  0  0  0  0  0
   -2.0770   -0.5470   35.5840 C   0  0  0  0  0  0  0  0  0  0  0  0
   -1.8240   -1.3760   34.3440 C   0  0  0  0  0  0  0  0  0  0  0  0
   -1.3280   -2.7690   34.6720 C   0  0  0  0  0  0  0  0  0  0  0  0
   -0.6210   -2.9730   35.6600 O   0  0  0  0  0  0  0  0  0  0  0  0
   -1.7010   -3.7390   33.8460 N   0  0  0  0  0  0  0  0  0  0  0  0
   -2.9100    1.9020   37.4640 N   0  0  0  0  0  0  0  0  0  0  0  0
   -3.5790    2.4210   38.6520 C   0  0  2  0  0  0  0  0  0  0  0  0
   -4.6420    3.4490   38.2810 C   0  0  0  0  0  0  0  0  0  0  0  0
   -4.6710    4.5510   38.8310 O   0  0  0  0  0  0  0  0  0  0  0  0
   -2.5680    3.0450   39.6130 C   0  0  0  0  0  0  0  0  0  0  0  0
   -1.6020    2.0290   40.1790 C   0  0  0  0  0  0  0  0  0  0  0  0
   -1.9570    0.8310   40.2250 O   0  0  0  0  0  0  0  0  0  0  0  0
   -0.4890    2.4300   40.5810 O   0  0  0  0  0  0  0  0  0  0  0  0
  2  1  1  1
  3  2  1  0
  4  3  2  0
  5  2  1  0
  6  5  1  0
  7  6  1  0
  8  7  1  0
  9  8  1  0
 10  3  1  0
 11 10  1  6
 12 11  1  0
 13 12  2  0
 14 11  1  0
 15 14  1  0
 14 16  1  1
 17 15  1  0
 18 12  1  0
 19 18  1  0
 20 19  1  0
 21 20  2  0
 19 22  1  6
 23 22  1  0
 24 23  1  0
 25 23  1  0
 26 20  1  0
 27 26  1  0
 28 27  1  0
 29 28  2  0
 27 30  1  1
 31 30  1  0
 32 31  1  0
 33 31  2  0
 34 32  2  0
 35 34  1  0
 35 33  1  0
 36 28  1  0
 37 36  1  0
 38 37  1  0
 39 38  2  0
 37 40  1  1
 41 40  1  0
 42 41  1  0
 43 42  1  0
 44 43  1  0
 45 44  1  0
 46 44  2  0
 47 38  1  0
 48 47  1  0
 49 48  1  0
 50 49  2  0
 48 51  1  6
 52 51  1  0
 53 52  1  0
 54 52  1  0
 55 49  1  0
 56 55  1  0
 57 56  1  0
 58 57  2  0
 56 59  1  6
 60 59  1  0
 61 60  1  0
 62 60  1  0
 63 57  1  0
 64 63  1  0
 65 64  1  0
 66 65  2  0
 64 67  1  1
 68 67  1  0
 69 68  1  0
 70 69  2  0
 71 69  1  0
 72 65  1  0
 73 72  1  0
 74 73  1  0
 75 74  2  0
 73 76  1  1
 77 76  1  0
 78 77  2  0
 79 77  1  0
M  END
$$$$
2QA8
     RDKit          3D

 79 79  0  0  0  0  0  0  0  0999 V2000
    0.7640  -18.6900   -9.9980 N   0  0  0  0  0  0  0  0  0  0  0  0
    1.2340  -17.3800   -9.4610 C   0  0  2  0  0  0  0  0  0  0  0  0
    2.3040  -16.7840  -10.3750 C   0  0  0  0  0  0  0  0  0  0  0  0
    3.3500  -17.3960  -10.6000 O   0  0  0  0  0  0  0  0  0  0  0  0
    1.7990  -17.5620   -8.0520 C   0  0  0  0  0  0  0  0  0  0  0  0
    1.5500  -16.3940   -7.1040 C   0  0  0  0  0  0  0  0  0  0  0  0
    0.1480  -16.4670   -6.5100 C   0  0  0  0  0  0  0  0  0  0  0  0
    0.0710  -15.7820   -5.1510 C   0  0  0  0  0  0  0  0  0  0  0  0
    0.0920  -14.2960   -5.2490 N   0  0  0  0  0  0  0  0  0  0  0  0
    2.0400  -15.5840  -10.8880 N   0  0  0  0  0  0  0  0  0  0  0  0
    2.9140  -14.9370  -11.8710 C   0  0  2  0  0  0  0  0  0  0  0  0
    4.3280  -14.6850  -11.3460 C   0  0  0  0  0  0  0  0  0  0  0  0
    5.3070  -14.9240  -12.0500 O   0  0  0  0  0  0  0  0  0  0  0  0
    2.2860  -13.6240  -12.4090 C   0  0  2  0  0  0  0  0  0  0  0  0
    0.8560  -13.9000  -12.8880 C   0  0  0  0  0  0  0  0  0  0  0  0
    3.1370  -13.0280  -13.5350 C   0  0  0  0  0  0  0  0  0  0  0  0
   -0.0090  -12.6790  -12.9900 C   0  0  0  0  0  0  0  0  0  0  0  0
    4.4310  -14.2090  -10.1090 N   0  0  0  0  0  0  0  0  0  0  0  0
    5.7350  -13.9640   -9.4870 C   0  0  2  0  0  0  0  0  0  0  0  0
    6.5750  -15.2400   -9.4730 C   0  0  0  0  0  0  0  0  0  0  0  0
    7.7600  -15.2210   -9.8170 O   0  0  0  0  0  0  0  0  0  0  0  0
    5.5700  -13.4270   -8.0570 C   0  0  0  0  0  0  0  0  0  0  0  0
    6.7540  -12.6780   -7.4360 C   0  0  0  0  0  0  0  0  0  0  0  0
    7.1520  -11.4610   -8.2750 C   0  0  0  0  0  0  0  0  0  0  0  0
    6.4240  -12.2690   -6.0030 C   0  0  0  0  0  0  0  0  0  0  0  0
    5.9450  -16.3440   -9.0770 N   0  0  0  0  0  0  0  0  0  0  0  0
    6.6070  -17.6420   -9.0120 C   0  0  2  0  0  0  0  0  0  0  0  0
    7.2950  -17.9740  -10.3350 C   0  0  0  0  0  0  0  0  0  0  0  0
    8.4520  -18.3980  -10.3640 O   0  0  0  0  0  0  0  0  0  0  0  0
    5.5880  -18.7230   -8.6740 C   0  0  0  0  0  0  0  0  0  0  0  0
    6.1540  -19.8460   -7.8690 C   0  0  0  0  0  0  0  0  0  0  0  0
    5.9840  -19.9360   -6.5000 N   0  0  0  0  0  0  0  0  0  0  0  0
    6.8980  -20.9200   -8.2340 C   0  0  0  0  0  0  0  0  0  0  0  0
    6.5940  -21.0230   -6.0560 C   0  0  0  0  0  0  0  0  0  0  0  0
    7.1560  -21.6380   -7.0880 N   0  0  0  0  0  0  0  0  0  0  0  0
    6.5670  -17.7740  -11.4270 N   0  0  0  0  0  0  0  0  0  0  0  0
    7.0940  -18.0020  -12.7600 C   0  0  2  0  0  0  0  0  0  0  0  0
    8.2490  -17.0510  -13.0820 C   0  0  0  0  0  0  0  0  0  0  0  0
    9.2610  -17.4770  -13.6290 O   0  0  0  0  0  0  0  0  0  0  0  0
    5.9590  -17.9170  -13.7910 C   0  0  0  0  0  0  0  0  0  0  0  0
    6.3750  -17.7880  -15.2510 C   0  0  0  0  0  0  0  0  0  0  0  0
    6.0060  -16.4060  -15.7980 C   0  0  0  0  0  0  0  0  0  0  0  0
    6.0760  -16.3430  -17.2590 N   0  0  0  0  0  0  0  0  0  0  0  0
    5.5380  -15.3710  -17.9930 C   0  0  0  0  0  0  0  0  0  0  0  0
    4.8800  -14.3740  -17.4040 N   0  0  0  0  0  0  0  0  0  0  0  0
    5.6540  -15.3980  -19.3180 N   0  0  0  0  0  0  0  0  0  0  0  0
    8.1130  -15.7750  -12.7200 N   0  0  0  0  0  0  0  0  0  0  0  0
    9.1700  -14.7840  -13.0000 C   0  0  2  0  0  0  0  0  0  0  0  0
   10.4900  -15.0480  -12.2580 C   0  0  0  0  0  0  0  0  0  0  0  0
   11.5670  -14.8400  -12.8140 O   0  0  0  0  0  0  0  0  0  0  0  0
    8.7030  -13.3470  -12.7260 C   0  0  0  0  0  0  0  0  0  0  0  0
    8.0680  -12.4610  -13.8050 C   0  0  0  0  0  0  0  0  0  0  0  0
    8.3450  -12.9580  -15.2260 C   0  0  0  0  0  0  0  0  0  0  0  0
    6.5810  -12.3160  -13.5640 C   0  0  0  0  0  0  0  0  0  0  0  0
   10.4170  -15.4840  -11.0040 N   0  0  0  0  0  0  0  0  0  0  0  0
   11.6380  -15.8030  -10.2640 C   0  0  2  0  0  0  0  0  0  0  0  0
   12.3600  -16.9760  -10.9250 C   0  0  0  0  0  0  0  0  0  0  0  0
   13.5870  -17.0070  -10.9870 O   0  0  0  0  0  0  0  0  0  0  0  0
   11.3480  -16.1230   -8.7940 C   0  0  0  0  0  0  0  0  0  0  0  0
   11.3220  -15.0410   -7.7030 C   0  0  0  0  0  0  0  0  0  0  0  0
   12.3750  -13.9440   -7.9150 C   0  0  0  0  0  0  0  0  0  0  0  0
    9.9360  -14.4410   -7.5620 C   0  0  0  0  0  0  0  0  0  0  0  0
   11.5850  -17.9340  -11.4220 N   0  0  0  0  0  0  0  0  0  0  0  0
   12.1370  -19.0890  -12.1170 C   0  0  2  0  0  0  0  0  0  0  0  0
   13.0400  -18.7080  -13.2950 C   0  0  0  0  0  0  0  0  0  0  0  0
   14.2260  -19.0400  -13.3050 O   0  0  0  0  0  0  0  0  0  0  0  0
   11.0110  -19.9820  -12.6180 C   0  0  0  0  0  0  0  0  0  0  0  0
   10.4380  -20.9140  -11.5880 C   0  0  0  0  0  0  0  0  0  0  0  0
    9.6910  -22.0500  -12.2460 C   0  0  0  0  0  0  0  0  0  0  0  0
    9.8330  -23.2160  -11.8510 O   0  0  0  0  0  0  0  0  0  0  0  0
    8.9030  -21.7160  -13.2790 N   0  0  0  0  0  0  0  0  0  0  0  0
   12.4680  -18.0280  -14.2890 N   0  0  0  0  0  0  0  0  0  0  0  0
   13.2170  -17.5960  -15.4700 C   0  0  2  0  0  0  0  0  0  0  0  0
   14.6590  -17.2310  -15.1420 C   0  0  0  0  0  0  0  0  0  0  0  0
   15.5880  -17.9460  -15.5210 O   0  0  0  0  0  0  0  0  0  0  0  0
   12.5170  -16.4210  -16.1620 C   0  0  0  0  0  0  0  0  0  0  0  0
   11.6150  -16.8670  -17.3000 C   0  0  0  0  0  0  0  0  0  0  0  0
   12.1360  -17.1350  -18.4080 O   0  0  0  0  0  0  0  0  0  0  0  0
   10.3860  -16.9420  -17.0870 O   0  0  0  0  0  0  0  0  0  0  0  0
  2  1  1  6
  3  2  1  0
  4  3  2  0
  5  2  1  0
  6  5  1  0
  7  6  1  0
  8  7  1  0
  9  8  1  0
 10  3  1  0
 11 10  1  1
 12 11  1  0
 13 12  2  0
 14 11  1  0
 15 14  1  0
 14 16  1  6
 17 15  1  0
 18 12  1  0
 19 18  1  0
 20 19  1  0
 21 20  2  0
 19 22  1  1
 23 22  1  0
 24 23  1  0
 25 23  1  0
 26 20  1  0
 27 26  1  0
 28 27  1  0
 29 28  2  0
 27 30  1  6
 31 30  1  0
 32 31  1  0
 33 31  2  0
 34 32  2  0
 35 34  1  0
 35 33  1  0
 36 28  1  0
 37 36  1  0
 38 37  1  0
 39 38  2  0
 37 40  1  6
 41 40  1  0
 42 41  1  0
 43 42  1  0
 44 43  1  0
 45 44  1  0
 46 44  2  0
 47 38  1  0
 48 47  1  0
 49 48  1  0
 50 49  2  0
 48 51  1  1
 52 51  1  0
 53 52  1  0
 54 52  1  0
 55 49  1  0
 56 55  1  0
 57 56  1  0
 58 57  2  0
 56 59  1  1
 60 59  1  0
 61 60  1  0
 62 60  1  0
 63 57  1  0
 64 63  1  0
 65 64  1  0
 66 65  2  0
 64 67  1  6
 68 67  1  0
 69 68  1  0
 70 69  2  0
 71 69  1  0
 72 65  1  0
 73 72  1  0
 74 73  1  0
 75 74  2  0
 73 76  1  1
 77 76  1  0
 78 77  2  0
 79 77  1  0
M  END
$$$$
4IW6
     RDKit          3D

 79 79  0  0  0  0  0  0  0  0999 V2000
    7.6210  -17.0110   34.4640 N   0  0  0  0  0  0  0  0  0  0  0  0
    7.7000  -15.6010   34.0780 C   0  0  2  0  0  0  0  0  0  0  0  0
    6.8070  -14.7210   34.9600 C   0  0  0  0  0  0  0  0  0  0  0  0
    5.6040  -14.9740   35.0930 O   0  0  0  0  0  0  0  0  0  0  0  0
    7.3150  -15.4300   32.6080 C   0  0  0  0  0  0  0  0  0  0  0  0
    8.3310  -14.6600   31.7760 C   0  0  0  0  0  0  0  0  0  0  0  0
    7.8150  -14.4530   30.3580 C   0  0  0  0  0  0  0  0  0  0  0  0
    8.9300  -14.1100   29.3840 C   0  0  0  0  0  0  0  0  0  0  0  0
    8.5020  -14.3380   27.9710 N   0  0  0  0  0  0  0  0  0  0  0  0
    7.3890  -13.6910   35.5670 N   0  0  0  0  0  0  0  0  0  0  0  0
    6.6240  -12.8520   36.4850 C   0  0  2  0  0  0  0  0  0  0  0  0
    5.4200  -12.2460   35.7770 C   0  0  0  0  0  0  0  0  0  0  0  0
    4.3000  -12.3620   36.2420 O   0  0  0  0  0  0  0  0  0  0  0  0
    7.4760  -11.7270   37.0970 C   0  0  2  0  0  0  0  0  0  0  0  0
    8.7290  -12.3060   37.7630 C   0  0  0  0  0  0  0  0  0  0  0  0
    6.6520  -10.9280   38.0970 C   0  0  0  0  0  0  0  0  0  0  0  0
    9.6220  -11.2550   38.4030 C   0  0  0  0  0  0  0  0  0  0  0  0
    5.6570  -11.6150   34.6340 N   0  0  0  0  0  0  0  0  0  0  0  0
    4.5830  -10.9700   33.8910 C   0  0  2  0  0  0  0  0  0  0  0  0
    3.4680  -11.9580   33.5670 C   0  0  0  0  0  0  0  0  0  0  0  0
    2.2880  -11.6490   33.7180 O   0  0  0  0  0  0  0  0  0  0  0  0
    5.1270  -10.3310   32.6110 C   0  0  0  0  0  0  0  0  0  0  0  0
    4.0700   -9.6890   31.7100 C   0  0  0  0  0  0  0  0  0  0  0  0
    3.2540   -8.6470   32.4830 C   0  0  0  0  0  0  0  0  0  0  0  0
    4.6940   -9.0780   30.4490 C   0  0  0  0  0  0  0  0  0  0  0  0
    3.8400  -13.1520   33.1280 N   0  0  0  0  0  0  0  0  0  0  0  0
    2.8470  -14.1880   32.8600 C   0  0  2  0  0  0  0  0  0  0  0  0
    2.0180  -14.5010   34.1080 C   0  0  0  0  0  0  0  0  0  0  0  0
    0.7920  -14.6280   34.0400 O   0  0  0  0  0  0  0  0  0  0  0  0
    3.5180  -15.4570   32.3320 C   0  0  0  0  0  0  0  0  0  0  0  0
    2.5550  -16.5470   31.9810 C   0  0  0  0  0  0  0  0  0  0  0  0
    2.5230  -17.7550   32.6450 N   0  0  0  0  0  0  0  0  0  0  0  0
    1.5840  -16.6100   31.0390 C   0  0  0  0  0  0  0  0  0  0  0  0
    1.5790  -18.5170   32.1230 C   0  0  0  0  0  0  0  0  0  0  0  0
    0.9920  -17.8440   31.1480 N   0  0  0  0  0  0  0  0  0  0  0  0
    2.6890  -14.6130   35.2490 N   0  0  0  0  0  0  0  0  0  0  0  0
    2.0060  -14.9170   36.5030 C   0  0  2  0  0  0  0  0  0  0  0  0
    1.0200  -13.8170   36.8840 C   0  0  0  0  0  0  0  0  0  0  0  0
   -0.1380  -14.0880   37.2130 O   0  0  0  0  0  0  0  0  0  0  0  0
    3.0140  -15.1190   37.6370 C   0  0  0  0  0  0  0  0  0  0  0  0
    2.3590  -15.4510   38.9710 C   0  0  0  0  0  0  0  0  0  0  0  0
    3.3700  -15.6100   40.1060 C   0  0  0  0  0  0  0  0  0  0  0  0
    3.7340  -14.3370   40.7230 N   0  0  0  0  0  0  0  0  0  0  0  0
    4.9850  -13.9060   40.8570 C   0  0  0  0  0  0  0  0  0  0  0  0
    5.9960  -14.6450   40.4160 N   0  0  0  0  0  0  0  0  0  0  0  0
    5.2260  -12.7360   41.4350 N   0  0  0  0  0  0  0  0  0  0  0  0
    1.4900  -12.5760   36.8500 N   0  0  0  0  0  0  0  0  0  0  0  0
    0.6640  -11.4310   37.2210 C   0  0  2  0  0  0  0  0  0  0  0  0
   -0.5560  -11.2900   36.3190 C   0  0  0  0  0  0  0  0  0  0  0  0
   -1.6240  -10.8890   36.7710 O   0  0  0  0  0  0  0  0  0  0  0  0
    1.4890  -10.1460   37.1790 C   0  0  0  0  0  0  0  0  0  0  0  0
    2.6810  -10.0800   38.1340 C   0  0  0  0  0  0  0  0  0  0  0  0
    3.3810   -8.7510   37.9940 C   0  0  0  0  0  0  0  0  0  0  0  0
    2.2590  -10.3080   39.5810 C   0  0  0  0  0  0  0  0  0  0  0  0
   -0.3840  -11.6090   35.0380 N   0  0  0  0  0  0  0  0  0  0  0  0
   -1.4770  -11.5470   34.0690 C   0  0  2  0  0  0  0  0  0  0  0  0
   -2.5920  -12.5440   34.3740 C   0  0  0  0  0  0  0  0  0  0  0  0
   -3.7670  -12.2450   34.1640 O   0  0  0  0  0  0  0  0  0  0  0  0
   -0.9540  -11.7610   32.6460 C   0  0  0  0  0  0  0  0  0  0  0  0
   -0.2860  -10.5370   32.0160 C   0  0  0  0  0  0  0  0  0  0  0  0
    0.3890  -10.8900   30.7100 C   0  0  0  0  0  0  0  0  0  0  0  0
   -1.3110   -9.4340   31.8100 C   0  0  0  0  0  0  0  0  0  0  0  0
   -2.2350  -13.7310   34.8530 N   0  0  0  0  0  0  0  0  0  0  0  0
   -3.2630  -14.7080   35.2080 C   0  0  2  0  0  0  0  0  0  0  0  0
   -3.5590  -14.6900   36.7000 C   0  0  0  0  0  0  0  0  0  0  0  0
   -2.9460  -15.4250   37.4700 O   0  0  0  0  0  0  0  0  0  0  0  0
   -2.9040  -16.1200   34.7220 C   0  0  0  0  0  0  0  0  0  0  0  0
   -1.5800  -16.6540   35.2080 C   0  0  0  0  0  0  0  0  0  0  0  0
   -1.4490  -18.1540   35.0050 C   0  0  0  0  0  0  0  0  0  0  0  0
   -1.9680  -18.7150   34.0360 O   0  0  0  0  0  0  0  0  0  0  0  0
   -0.7570  -18.8110   35.9270 N   0  0  0  0  0  0  0  0  0  0  0  0
   -4.5030  -13.8410   37.0990 N   0  0  0  0  0  0  0  0  0  0  0  0
   -4.8380  -13.6760   38.5070 C   0  0  2  0  0  0  0  0  0  0  0  0
   -3.5720  -13.4330   39.3210 C   0  0  0  0  0  0  0  0  0  0  0  0
   -3.2730  -12.3020   39.7010 O   0  0  0  0  0  0  0  0  0  0  0  0
   -5.5730  -14.9130   39.0360 C   0  0  0  0  0  0  0  0  0  0  0  0
   -6.9280  -14.5790   39.6440 C   0  0  0  0  0  0  0  0  0  0  0  0
   -7.0040  -14.3620   40.8750 O   0  0  0  0  0  0  0  0  0  0  0  0
   -7.9230  -14.5490   38.8910 O   0  0  0  0  0  0  0  0  0  0  0  0
  2  1  1  1
  3  2  1  0
  4  3  2  0
  5  2  1  0
  6  5  1  0
  7  6  1  0
  8  7  1  0
  9  8  1  0
 10  3  1  0
 11 10  1  6
 12 11  1  0
 13 12  2  0
 14 11  1  0
 15 14  1  0
 14 16  1  1
 17 15  1  0
 18 12  1  0
 19 18  1  0
 20 19  1  0
 21 20  2  0
 19 22  1  6
 23 22  1  0
 24 23  1  0
 25 23  1  0
 26 20  1  0
 27 26  1  0
 28 27  1  0
 29 28  2  0
 27 30  1  1
 31 30  1  0
 32 31  1  0
 33 31  2  0
 34 32  2  0
 35 34  1  0
 35 33  1  0
 36 28  1  0
 37 36  1  0
 38 37  1  0
 39 38  2  0
 37 40  1  1
 41 40  1  0
 42 41  1  0
 43 42  1  0
 44 43  1  0
 45 44  1  0
 46 44  2  0
 47 38  1  0
 48 47  1  0
 49 48  1  0
 50 49  2  0
 48 51  1  6
 52 51  1  0
 53 52  1  0
 54 52  1  0
 55 49  1  0
 56 55  1  0
 57 56  1  0
 58 57  2  0
 56 59  1  6
 60 59  1  0
 61 60  1  0
 62 60  1  0
 63 57  1  0
 64 63  1  0
 65 64  1  0
 66 65  2  0
 64 67  1  1
 68 67  1  0
 69 68  1  0
 70 69  2  0
 71 69  1  0
 72 65  1  0
 73 72  1  0
 74 73  1  0
 75 74  2  0
 73 76  1  1
 77 76  1  0
 78 77  2  0
 79 77  1  0
M  END
$$$$
7MSA
     RDKit          3D

 68 68  0  0  0  0  0  0  0  0999 V2000
  -75.4190   -9.0690  -57.1730 N   0  0  0  0  0  0  0  0  0  0  0  0
  -74.7470   -8.8770  -55.8520 C   0  0  2  0  0  0  0  0  0  0  0  0
  -75.7440   -9.1860  -54.7350 C   0  0  0  0  0  0  0  0  0  0  0  0
  -76.8960   -8.7610  -54.8070 O   0  0  0  0  0  0  0  0  0  0  0  0
  -74.1740   -7.4510  -55.7360 C   0  0  0  0  0  0  0  0  0  0  0  0
  -73.6770   -7.1290  -54.3290 C   0  0  0  0  0  0  0  0  0  0  0  0
  -73.0780   -7.2320  -56.7690 C   0  0  0  0  0  0  0  0  0  0  0  0
  -75.3620   -9.9580  -53.6860 N   0  0  0  0  0  0  0  0  0  0  0  0
  -76.2400  -10.1840  -52.5370 C   0  0  2  0  0  0  0  0  0  0  0  0
  -76.3560   -8.9460  -51.6330 C   0  0  0  0  0  0  0  0  0  0  0  0
  -75.3410   -8.3280  -51.3540 O   0  0  0  0  0  0  0  0  0  0  0  0
  -75.5770  -11.3350  -51.7570 C   0  0  0  0  0  0  0  0  0  0  0  0
  -74.5340  -11.8960  -52.7030 C   0  0  0  0  0  0  0  0  0  0  0  0
  -74.1110  -10.7230  -53.5650 C   0  0  0  0  0  0  0  0  0  0  0  0
  -77.5820   -8.6230  -51.2060 N   0  0  0  0  0  0  0  0  0  0  0  0
  -77.8860   -7.6150  -50.1560 C   0  0  2  0  0  0  0  0  0  0  0  0
  -77.5570   -8.2030  -48.7770 C   0  0  0  0  0  0  0  0  0  0  0  0
  -77.0830   -9.3560  -48.7200 O   0  0  0  0  0  0  0  0  0  0  0  0
  -79.3230   -7.1690  -50.2350 C   0  0  0  0  0  0  0  0  0  0  0  0
  -80.1930   -8.1830  -49.7550 O   0  0  0  0  0  0  0  0  0  0  0  0
  -77.8110   -7.4420  -47.7070 N   0  0  0  0  0  0  0  0  0  0  0  0
  -77.5620   -7.8510  -46.2990 C   0  0  2  0  0  0  0  0  0  0  0  0
  -78.5680   -8.9410  -45.8970 C   0  0  0  0  0  0  0  0  0  0  0  0
  -78.1360   -9.9710  -45.3300 O   0  0  0  0  0  0  0  0  0  0  0  0
  -77.6170   -6.6360  -45.3670 C   0  0  0  0  0  0  0  0  0  0  0  0
  -79.8570   -8.7300  -46.1990 N   0  0  0  0  0  0  0  0  0  0  0  0
  -80.9820   -9.6500  -45.8630 C   0  0  2  0  0  0  0  0  0  0  0  0
  -80.6830  -11.0500  -46.4210 C   0  0  0  0  0  0  0  0  0  0  0  0
  -80.9260  -12.0380  -45.6920 O   0  0  0  0  0  0  0  0  0  0  0  0
  -82.3250   -9.1100  -46.3710 C   0  0  0  0  0  0  0  0  0  0  0  0
  -80.1780  -11.1260  -47.6590 N   0  0  0  0  0  0  0  0  0  0  0  0
  -79.7510  -12.3890  -48.3270 C   0  0  2  0  0  0  0  0  0  0  0  0
  -78.9600  -13.2430  -47.3280 C   0  0  0  0  0  0  0  0  0  0  0  0
  -79.4850  -14.2930  -46.9020 O   0  0  0  0  0  0  0  0  0  0  0  0
  -78.9070  -12.0540  -49.5630 C   0  0  0  0  0  0  0  0  0  0  0  0
  -77.7700  -12.7720  -46.9400 N   0  0  0  0  0  0  0  0  0  0  0  0
  -76.8270  -13.4660  -46.0180 C   0  0  2  0  0  0  0  0  0  0  0  0
  -77.4350  -13.5370  -44.6150 C   0  0  0  0  0  0  0  0  0  0  0  0
  -77.1760  -14.5420  -43.9210 O   0  0  0  0  0  0  0  0  0  0  0  0
  -75.4920  -12.7120  -45.9910 C   0  0  0  0  0  0  0  0  0  0  0  0
  -78.1960  -12.5040  -44.2230 N   0  0  0  0  0  0  0  0  0  0  0  0
  -78.8450  -12.3840  -42.8870 C   0  0  2  0  0  0  0  0  0  0  0  0
  -79.5390  -13.7080  -42.5500 C   0  0  0  0  0  0  0  0  0  0  0  0
  -79.1550  -14.3310  -41.5390 O   0  0  0  0  0  0  0  0  0  0  0  0
  -79.8450  -11.2220  -42.8990 C   0  0  0  0  0  0  0  0  0  0  0  0
  -80.4900  -14.1230  -43.3920 N   0  0  0  0  0  0  0  0  0  0  0  0
  -81.3270  -15.3400  -43.2020 C   0  0  2  0  0  0  0  0  0  0  0  0
  -80.4340  -16.5890  -43.2050 C   0  0  0  0  0  0  0  0  0  0  0  0
  -80.6940  -17.4980  -42.3880 O   0  0  0  0  0  0  0  0  0  0  0  0
  -82.3980  -15.4220  -44.2930 C   0  0  0  0  0  0  0  0  0  0  0  0
  -79.4080  -16.6040  -44.0650 N   0  0  0  0  0  0  0  0  0  0  0  0
  -78.5850  -17.8000  -44.4030 C   0  0  2  0  0  0  0  0  0  0  0  0
  -77.6610  -18.1980  -43.2420 C   0  0  0  0  0  0  0  0  0  0  0  0
  -77.3200  -19.3940  -43.1580 O   0  0  0  0  0  0  0  0  0  0  0  0
  -77.7350  -17.5340  -45.6490 C   0  0  0  0  0  0  0  0  0  0  0  0
  -78.5520  -17.3860  -46.9170 C   0  0  0  0  0  0  0  0  0  0  0  0
  -77.5460  -16.8620  -48.3340 S   0  0  0  0  0  0  0  0  0  0  0  0
  -78.8350  -16.6170  -49.5550 C   0  0  0  0  0  0  0  0  0  0  0  0
  -77.2470  -17.2470  -42.3960 N   0  0  0  0  0  0  0  0  0  0  0  0
  -76.3480  -17.5150  -41.2380 C   0  0  2  0  0  0  0  0  0  0  0  0
  -77.0780  -18.4060  -40.2190 C   0  0  0  0  0  0  0  0  0  0  0  0
  -76.5060  -19.4470  -39.8410 O   0  0  0  0  0  0  0  0  0  0  0  0
  -75.9000  -16.1880  -40.6170 C   0  0  0  0  0  0  0  0  0  0  0  0
  -78.2920  -18.0230  -39.8070 N   0  0  0  0  0  0  0  0  0  0  0  0
  -79.1530  -18.8060  -38.8760 C   0  0  2  0  0  0  0  0  0  0  0  0
  -80.1750  -19.6110  -39.6880 C   0  0  0  0  0  0  0  0  0  0  0  0
  -79.9010  -20.7320  -40.1190 O   0  0  0  0  0  0  0  0  0  0  0  0
  -79.8480  -17.9000  -37.8550 C   0  0  0  0  0  0  0  0  0  0  0  0
  2  1  1  6
  3  2  1  0
  4  3  2  0
  5  2  1  0
  6  5  1  0
  7  5  1  0
  8  3  1  0
  9  8  1  0
  9 10  1  1
 11 10  2  0
 12  9  1  0
 13 12  1  0
 14 13  1  0
 14  8  1  0
 15 10  1  0
 16 15  1  0
 17 16  1  0
 18 17  2  0
 16 19  1  1
 20 19  1  0
 21 17  1  0
 22 21  1  0
 23 22  1  0
 24 23  2  0
 22 25  1  1
 26 23  1  0
 27 26  1  0
 28 27  1  0
 29 28  2  0
 27 30  1  6
 31 28  1  0
 32 31  1  0
 33 32  1  0
 34 33  2  0
 32 35  1  6
 36 33  1  0
 37 36  1  0
 38 37  1  0
 39 38  2  0
 37 40  1  1
 41 38  1  0
 42 41  1  0
 43 42  1  0
 44 43  2  0
 42 45  1  6
 46 43  1  0
 47 46  1  0
 48 47  1  0
 49 48  2  0
 47 50  1  6
 51 48  1  0
 52 51  1  0
 53 52  1  0
 54 53  2  0
 52 55  1  6
 56 55  1  0
 57 56  1  0
 58 57  1  0
 59 53  1  0
 60 59  1  0
 61 60  1  0
 62 61  2  0
 60 63  1  1
 64 61  1  0
 65 64  1  0
 66 65  1  0
 67 66  2  0
 65 68  1  1
M  END
$$$$
5KRF
     RDKit          3D

 22 24  0  0  0  0  0  0  0  0999 V2000
   22.4730   12.5010    9.0640 F   0  0  0  0  0  0  0  0  0  0  0  0
   21.4000   12.2000    8.4700 C   0  0  1  0  0  0  0  0  0  0  0  0
   21.2900   10.9240    8.4770 F   0  0  0  0  0  0  0  0  0  0  0  0
   20.4510   12.6770    9.1770 F   0  0  0  0  0  0  0  0  0  0  0  0
   21.3520   12.8600    7.0970 C   0  0  0  0  0  0  0  0  0  0  0  0
   22.4130   13.6200    6.6560 C   0  0  0  0  0  0  0  0  0  0  0  0
   22.3460   14.2390    5.4010 C   0  0  0  0  0  0  0  0  0  0  0  0
   21.2130   14.0940    4.6090 C   0  0  0  0  0  0  0  0  0  0  0  0
   20.1730   13.3600    5.0640 C   0  0  0  0  0  0  0  0  0  0  0  0
   20.2440   12.7450    6.3090 C   0  0  0  0  0  0  0  0  0  0  0  0
   19.0770   12.1000    6.4530 N   0  0  0  0  0  0  0  0  0  0  0  0
   18.7720   11.3450    7.6020 C   0  0  0  0  0  0  0  0  0  0  0  0
   18.2970   12.2310    5.4720 N   0  0  0  0  0  0  0  0  0  0  0  0
   18.8920   12.9820    4.5470 C   0  0  1  0  0  0  0  0  0  0  0  0
   18.3420   13.4400    3.2360 C   0  0  2  0  0  0  0  0  0  0  0  0
   19.2100   13.7750    2.1670 C   0  0  0  0  0  0  0  0  0  0  0  0
   18.6590   14.2530    0.9580 C   0  0  0  0  0  0  0  0  0  0  0  0
   17.2040   14.4190    0.8240 C   0  0  0  0  0  0  0  0  0  0  0  0
   16.6920   14.8600   -0.3110 O   0  0  0  0  0  0  0  0  0  0  0  0
   16.3260   14.1060    1.8940 C   0  0  0  0  0  0  0  0  0  0  0  0
   16.8770   13.6220    3.0980 C   0  0  0  0  0  0  0  0  0  0  0  0
   16.0820   13.3210    4.1160 O   0  0  0  0  0  0  0  0  0  0  0  0
  2  1  1  1
  3  2  1  0
  4  2  1  0
  5  2  1  0
  6  5  1  0
  7  6  1  0
  8  7  1  0
  9  8  1  0
 10  9  1  0
 10  5  1  0
 11 10  1  0
 12 11  1  0
 13 11  1  0
 14  9  1  0
 14 13  1  1
 15 14  1  0
 15 16  1  1
 17 16  1  0
 18 17  1  0
 19 18  1  0
 20 18  1  0
 21 20  1  0
 21 15  1  0
 22 21  1  0
M  END
$$$$
5EIT
     RDKit          3D

 75 75  0  0  0  0  0  0  0  0999 V2000
   -5.7680  -41.3640  -33.3950 N   0  0  0  0  0  0  0  0  0  0  0  0
   -6.0960  -39.9430  -33.3860 C   0  0  2  0  0  0  0  0  0  0  0  0
   -5.2790  -39.1820  -34.4250 C   0  0  0  0  0  0  0  0  0  0  0  0
   -4.1440  -39.5480  -34.7240 O   0  0  0  0  0  0  0  0  0  0  0  0
   -5.8640  -39.3470  -31.9960 C   0  0  0  0  0  0  0  0  0  0  0  0
   -5.8660  -38.1240  -34.9740 N   0  0  0  0  0  0  0  0  0  0  0  0
   -5.1810  -37.2900  -35.9550 C   0  0  2  0  0  0  0  0  0  0  0  0
   -3.9820  -36.5920  -35.3210 C   0  0  0  0  0  0  0  0  0  0  0  0
   -2.9050  -36.5190  -35.9140 O   0  0  0  0  0  0  0  0  0  0  0  0
   -6.1330  -36.2430  -36.5620 C   0  0  2  0  0  0  0  0  0  0  0  0
   -7.2920  -36.9400  -37.2780 C   0  0  0  0  0  0  0  0  0  0  0  0
   -5.3880  -35.3270  -37.5190 C   0  0  0  0  0  0  0  0  0  0  0  0
   -8.2040  -36.0030  -38.0320 C   0  0  0  0  0  0  0  0  0  0  0  0
   -4.1790  -36.0940  -34.1040 N   0  0  0  0  0  0  0  0  0  0  0  0
   -3.1140  -35.4500  -33.3420 C   0  0  2  0  0  0  0  0  0  0  0  0
   -1.9510  -36.4070  -33.1000 C   0  0  0  0  0  0  0  0  0  0  0  0
   -0.7950  -35.9920  -32.9960 O   0  0  0  0  0  0  0  0  0  0  0  0
   -3.6580  -34.9370  -32.0080 C   0  0  0  0  0  0  0  0  0  0  0  0
   -2.6460  -34.3380  -31.0290 C   0  0  0  0  0  0  0  0  0  0  0  0
   -1.9690  -33.1290  -31.6430 C   0  0  0  0  0  0  0  0  0  0  0  0
   -3.3140  -33.9700  -29.7170 C   0  0  0  0  0  0  0  0  0  0  0  0
   -2.2700  -37.6930  -33.0170 N   0  0  0  0  0  0  0  0  0  0  0  0
   -1.2740  -38.7190  -32.7570 C   0  0  2  0  0  0  0  0  0  0  0  0
   -0.3310  -38.8900  -33.9430 C   0  0  0  0  0  0  0  0  0  0  0  0
    0.8860  -38.9590  -33.7750 O   0  0  0  0  0  0  0  0  0  0  0  0
   -1.9580  -40.0470  -32.4350 C   0  0  0  0  0  0  0  0  0  0  0  0
   -1.0810  -41.0160  -31.7090 C   0  0  0  0  0  0  0  0  0  0  0  0
   -1.0010  -41.0590  -30.3340 N   0  0  0  0  0  0  0  0  0  0  0  0
   -0.2440  -41.9770  -32.1650 C   0  0  0  0  0  0  0  0  0  0  0  0
   -0.1540  -42.0060  -29.9740 C   0  0  0  0  0  0  0  0  0  0  0  0
    0.3190  -42.5790  -31.0660 N   0  0  0  0  0  0  0  0  0  0  0  0
   -0.9030  -38.9560  -35.1410 N   0  0  0  0  0  0  0  0  0  0  0  0
   -0.1220  -39.1440  -36.3570 C   0  0  2  0  0  0  0  0  0  0  0  0
    0.8020  -37.9630  -36.6210 C   0  0  0  0  0  0  0  0  0  0  0  0
    1.9820  -38.1420  -36.9180 O   0  0  0  0  0  0  0  0  0  0  0  0
   -1.0380  -39.3490  -37.5640 C   0  0  0  0  0  0  0  0  0  0  0  0
   -1.9960  -40.5210  -37.4520 C   0  0  0  0  0  0  0  0  0  0  0  0
   -2.7190  -40.7680  -38.7730 C   0  0  0  0  0  0  0  0  0  0  0  0
   -3.4840  -39.6060  -39.2240 N   0  0  0  0  0  0  0  0  0  0  0  0
   -3.0740  -38.7500  -40.1570 C   0  0  0  0  0  0  0  0  0  0  0  0
   -1.8990  -38.9190  -40.7480 N   0  0  0  0  0  0  0  0  0  0  0  0
   -3.8400  -37.7230  -40.4990 N   0  0  0  0  0  0  0  0  0  0  0  0
    0.2550  -36.7570  -36.5130 N   0  0  0  0  0  0  0  0  0  0  0  0
    1.0000  -35.5440  -36.8290 C   0  0  2  0  0  0  0  0  0  0  0  0
    2.1610  -35.3260  -35.8630 C   0  0  0  0  0  0  0  0  0  0  0  0
    3.1810  -34.7430  -36.2290 O   0  0  0  0  0  0  0  0  0  0  0  0
    0.0660  -34.3330  -36.8220 C   0  0  0  0  0  0  0  0  0  0  0  0
   -1.1220  -34.4300  -37.7810 C   0  0  0  0  0  0  0  0  0  0  0  0
   -1.9360  -33.1470  -37.7720 C   0  0  0  0  0  0  0  0  0  0  0  0
   -0.6520  -34.7590  -39.1890 C   0  0  0  0  0  0  0  0  0  0  0  0
    2.0020  -35.7990  -34.6310 N   0  0  0  0  0  0  0  0  0  0  0  0
    3.0720  -35.7260  -33.6450 C   0  0  2  0  0  0  0  0  0  0  0  0
    4.1530  -36.7600  -33.9390 C   0  0  0  0  0  0  0  0  0  0  0  0
    5.2940  -36.6210  -33.4980 O   0  0  0  0  0  0  0  0  0  0  0  0
    2.5190  -35.9300  -32.2330 C   0  0  0  0  0  0  0  0  0  0  0  0
    1.8750  -34.7100  -31.5750 C   0  0  0  0  0  0  0  0  0  0  0  0
    1.1620  -35.1050  -30.2930 C   0  0  0  0  0  0  0  0  0  0  0  0
    2.9270  -33.6510  -31.2960 C   0  0  0  0  0  0  0  0  0  0  0  0
    3.7850  -37.7930  -34.6890 N   0  0  0  0  0  0  0  0  0  0  0  0
    4.7100  -38.8680  -35.0310 C   0  0  2  0  0  0  0  0  0  0  0  0
    5.5860  -38.5330  -36.2330 C   0  0  0  0  0  0  0  0  0  0  0  0
    6.7570  -38.9100  -36.2700 O   0  0  0  0  0  0  0  0  0  0  0  0
    3.9440  -40.1620  -35.3150 C   0  0  0  0  0  0  0  0  0  0  0  0
    3.4570  -40.8970  -34.0830 C   0  0  0  0  0  0  0  0  0  0  0  0
    2.7330  -42.1810  -34.4340 C   0  0  0  0  0  0  0  0  0  0  0  0
    2.0960  -42.2790  -35.4840 O   0  0  0  0  0  0  0  0  0  0  0  0
    2.8350  -43.1770  -33.5620 N   0  0  0  0  0  0  0  0  0  0  0  0
    5.0070  -37.8350  -37.2090 N   0  0  0  0  0  0  0  0  0  0  0  0
    5.6570  -37.5710  -38.4960 C   0  0  2  0  0  0  0  0  0  0  0  0
    7.0820  -37.0430  -38.3640 C   0  0  0  0  0  0  0  0  0  0  0  0
    8.0180  -37.6220  -38.9180 O   0  0  0  0  0  0  0  0  0  0  0  0
    4.8260  -36.5790  -39.3170 C   0  0  0  0  0  0  0  0  0  0  0  0
    3.4960  -37.1580  -39.7650 C   0  0  0  0  0  0  0  0  0  0  0  0
    3.3940  -38.3960  -39.8930 O   0  0  0  0  0  0  0  0  0  0  0  0
    2.5550  -36.3700  -39.9950 O   0  0  0  0  0  0  0  0  0  0  0  0
  2  1  1  0
  3  2  1  0
  4  3  2  0
  2  5  1  1
  6  3  1  0
  7  6  1  1
  8  7  1  0
  9  8  2  0
 10  7  1  0
 11 10  1  0
 10 12  1  6
 13 11  1  0
 14  8  1  0
 15 14  1  0
 16 15  1  0
 17 16  2  0
 15 18  1  1
 19 18  1  0
 20 19  1  0
 21 19  1  0
 22 16  1  0
 23 22  1  0
 24 23  1  0
 25 24  2  0
 23 26  1  6
 27 26  1  0
 28 27  1  0
 29 27  2  0
 30 28  2  0
 31 30  1  0
 31 29  1  0
 32 24  1  0
 33 32  1  0
 34 33  1  0
 35 34  2  0
 33 36  1  6
 37 36  1  0
 38 37  1  0
 39 38  1  0
 40 39  1  0
 41 40  1  0
 42 40  2  0
 43 34  1  0
 44 43  1  0
 45 44  1  0
 46 45  2  0
 44 47  1  1
 48 47  1  0
 49 48  1  0
 50 48  1  0
 51 45  1  0
 52 51  1  0
 53 52  1  0
 54 53  2  0
 52 55  1  1
 56 55  1  0
 57 56  1  0
 58 56  1  0
 59 53  1  0
 60 59  1  0
 61 60  1  0
 62 61  2  0
 60 63  1  6
 64 63  1  0
 65 64  1  0
 66 65  2  0
 67 65  1  0
 68 61  1  0
 69 68  1  0
 70 69  1  0
 71 70  2  0
 69 72  1  1
 73 72  1  0
 74 73  2  0
 75 73  1  0
M  END
$$$$
5E19
     RDKit          3D

 75 75  0  0  0  0  0  0  0  0999 V2000
   -0.6890  -17.8790   20.0700 N   0  0  0  0  0  0  0  0  0  0  0  0
   -0.0290  -16.8080   20.8080 C   0  0  2  0  0  0  0  0  0  0  0  0
    0.9360  -16.0380   19.9090 C   0  0  0  0  0  0  0  0  0  0  0  0
    2.1090  -16.3940   19.7910 O   0  0  0  0  0  0  0  0  0  0  0  0
    0.7100  -17.3720   22.0220 C   0  0  0  0  0  0  0  0  0  0  0  0
    0.4290  -14.9810   19.2820 N   0  0  0  0  0  0  0  0  0  0  0  0
    1.2060  -14.1830   18.3390 C   0  0  2  0  0  0  0  0  0  0  0  0
    2.4000  -13.5030   19.0060 C   0  0  0  0  0  0  0  0  0  0  0  0
    3.5050  -13.5020   18.4620 O   0  0  0  0  0  0  0  0  0  0  0  0
    0.3270  -13.1120   17.6620 C   0  0  2  0  0  0  0  0  0  0  0  0
   -0.8350  -13.7740   16.9190 C   0  0  0  0  0  0  0  0  0  0  0  0
    1.1520  -12.2590   16.7100 C   0  0  0  0  0  0  0  0  0  0  0  0
   -1.7420  -12.7960   16.2040 C   0  0  0  0  0  0  0  0  0  0  0  0
    2.1710  -12.9280   20.1830 N   0  0  0  0  0  0  0  0  0  0  0  0
    3.2330  -12.2790   20.9480 C   0  0  2  0  0  0  0  0  0  0  0  0
    4.3610  -13.2600   21.2520 C   0  0  0  0  0  0  0  0  0  0  0  0
    5.5370  -12.9020   21.2240 O   0  0  0  0  0  0  0  0  0  0  0  0
    2.6750  -11.6950   22.2480 C   0  0  0  0  0  0  0  0  0  0  0  0
    3.6750  -11.0480   23.2110 C   0  0  0  0  0  0  0  0  0  0  0  0
    4.3190   -9.8210   22.5920 C   0  0  0  0  0  0  0  0  0  0  0  0
    3.0000  -10.6910   24.5230 C   0  0  0  0  0  0  0  0  0  0  0  0
    3.9860  -14.5030   21.5300 N   0  0  0  0  0  0  0  0  0  0  0  0
    4.9430  -15.5560   21.8460 C   0  0  2  0  0  0  0  0  0  0  0  0
    5.8260  -15.8910   20.6440 C   0  0  0  0  0  0  0  0  0  0  0  0
    7.0200  -16.1500   20.7960 O   0  0  0  0  0  0  0  0  0  0  0  0
    4.2010  -16.8040   22.3260 C   0  0  0  0  0  0  0  0  0  0  0  0
    5.0920  -17.8610   22.8990 C   0  0  0  0  0  0  0  0  0  0  0  0
    5.6670  -18.8470   22.1280 N   0  0  0  0  0  0  0  0  0  0  0  0
    5.4940  -18.0940   24.1710 C   0  0  0  0  0  0  0  0  0  0  0  0
    6.3900  -19.6400   22.8990 C   0  0  0  0  0  0  0  0  0  0  0  0
    6.3010  -19.2050   24.1430 N   0  0  0  0  0  0  0  0  0  0  0  0
    5.2340  -15.8760   19.4530 N   0  0  0  0  0  0  0  0  0  0  0  0
    5.9660  -16.1800   18.2260 C   0  0  2  0  0  0  0  0  0  0  0  0
    6.9560  -15.0770   17.8700 C   0  0  0  0  0  0  0  0  0  0  0  0
    8.1270  -15.3430   17.5970 O   0  0  0  0  0  0  0  0  0  0  0  0
    4.9990  -16.3950   17.0590 C   0  0  0  0  0  0  0  0  0  0  0  0
    5.6930  -16.6210   15.7230 C   0  0  0  0  0  0  0  0  0  0  0  0
    5.1300  -15.7170   14.6350 C   0  0  0  0  0  0  0  0  0  0  0  0
    3.7520  -16.0550   14.2900 N   0  0  0  0  0  0  0  0  0  0  0  0
    3.0300  -15.4080   13.3810 C   0  0  0  0  0  0  0  0  0  0  0  0
    3.5540  -14.3820   12.7230 N   0  0  0  0  0  0  0  0  0  0  0  0
    1.7840  -15.7850   13.1290 N   0  0  0  0  0  0  0  0  0  0  0  0
    6.4720  -13.8390   17.8720 N   0  0  0  0  0  0  0  0  0  0  0  0
    7.2850  -12.6880   17.4970 C   0  0  2  0  0  0  0  0  0  0  0  0
    8.4590  -12.4900   18.4520 C   0  0  0  0  0  0  0  0  0  0  0  0
    9.4900  -11.9330   18.0740 O   0  0  0  0  0  0  0  0  0  0  0  0
    6.4220  -11.4250   17.4510 C   0  0  0  0  0  0  0  0  0  0  0  0
    5.2570  -11.4600   16.4580 C   0  0  0  0  0  0  0  0  0  0  0  0
    4.4260  -10.1880   16.5410 C   0  0  0  0  0  0  0  0  0  0  0  0
    5.7700  -11.6730   15.0430 C   0  0  0  0  0  0  0  0  0  0  0  0
    8.3010  -12.9540   19.6870 N   0  0  0  0  0  0  0  0  0  0  0  0
    9.3610  -12.8530   20.6840 C   0  0  2  0  0  0  0  0  0  0  0  0
   10.4890  -13.8470   20.4170 C   0  0  0  0  0  0  0  0  0  0  0  0
   11.6570  -13.5440   20.6570 O   0  0  0  0  0  0  0  0  0  0  0  0
    8.7960  -13.0640   22.0880 C   0  0  0  0  0  0  0  0  0  0  0  0
    8.1720  -11.8350   22.7500 C   0  0  0  0  0  0  0  0  0  0  0  0
    7.4710  -12.2200   24.0420 C   0  0  0  0  0  0  0  0  0  0  0  0
    9.2330  -10.7780   23.0110 C   0  0  0  0  0  0  0  0  0  0  0  0
   10.1400  -15.0340   19.9280 N   0  0  0  0  0  0  0  0  0  0  0  0
   11.1490  -16.0200   19.5550 C   0  0  2  0  0  0  0  0  0  0  0  0
   12.0000  -15.4750   18.4140 C   0  0  0  0  0  0  0  0  0  0  0  0
   13.2170  -15.3460   18.5480 O   0  0  0  0  0  0  0  0  0  0  0  0
   10.5000  -17.3520   19.1700 C   0  0  0  0  0  0  0  0  0  0  0  0
   10.1920  -18.2390   20.3680 C   0  0  0  0  0  0  0  0  0  0  0  0
    9.4470  -19.5070   19.9990 C   0  0  0  0  0  0  0  0  0  0  0  0
    8.7280  -19.5520   19.0010 O   0  0  0  0  0  0  0  0  0  0  0  0
    9.6130  -20.5470   20.8080 N   0  0  0  0  0  0  0  0  0  0  0  0
   11.3470  -15.1510   17.3000 N   0  0  0  0  0  0  0  0  0  0  0  0
   11.9760  -14.4170   16.2050 C   0  0  2  0  0  0  0  0  0  0  0  0
   10.9300  -14.0010   15.1760 C   0  0  0  0  0  0  0  0  0  0  0  0
   10.0400  -14.7800   14.8350 O   0  0  0  0  0  0  0  0  0  0  0  0
   13.0720  -15.2470   15.5300 C   0  0  0  0  0  0  0  0  0  0  0  0
   14.0160  -14.3950   14.7020 C   0  0  0  0  0  0  0  0  0  0  0  0
   13.9680  -13.1540   14.8360 O   0  0  0  0  0  0  0  0  0  0  0  0
   14.8120  -14.9650   13.9270 O   0  0  0  0  0  0  0  0  0  0  0  0
  2  1  1  0
  3  2  1  0
  4  3  2  0
  2  5  1  1
  6  3  1  0
  7  6  1  1
  8  7  1  0
  9  8  2  0
 10  7  1  0
 11 10  1  0
 10 12  1  6
 13 11  1  0
 14  8  1  0
 15 14  1  0
 16 15  1  0
 17 16  2  0
 15 18  1  1
 19 18  1  0
 20 19  1  0
 21 19  1  0
 22 16  1  0
 23 22  1  0
 24 23  1  0
 25 24  2  0
 23 26  1  6
 27 26  1  0
 28 27  1  0
 29 27  2  0
 30 28  2  0
 31 30  1  0
 31 29  1  0
 32 24  1  0
 33 32  1  0
 34 33  1  0
 35 34  2  0
 33 36  1  6
 37 36  1  0
 38 37  1  0
 39 38  1  0
 40 39  1  0
 41 40  1  0
 42 40  2  0
 43 34  1  0
 44 43  1  0
 45 44  1  0
 46 45  2  0
 44 47  1  1
 48 47  1  0
 49 48  1  0
 50 48  1  0
 51 45  1  0
 52 51  1  0
 53 52  1  0
 54 53  2  0
 52 55  1  1
 56 55  1  0
 57 56  1  0
 58 56  1  0
 59 53  1  0
 60 59  1  0
 61 60  1  0
 62 61  2  0
 60 63  1  6
 64 63  1  0
 65 64  1  0
 66 65  2  0
 67 65  1  0
 68 61  1  0
 69 68  1  0
 70 69  1  0
 71 70  2  0
 69 72  1  6
 73 72  1  0
 74 73  2  0
 75 73  1  0
M  END
$$$$
7QVJ
     RDKit          3D

 36 39  0  0  0  0  0  0  0  0999 V2000
   18.0380  -13.8500   12.5860 C   0  0  0  0  0  0  0  0  0  0  0  0
   17.7620  -15.2200   12.6020 C   0  0  0  0  0  0  0  0  0  0  0  0
   17.7220  -15.9750   11.4330 C   0  0  0  0  0  0  0  0  0  0  0  0
   18.6410  -11.7160   11.2690 C   0  0  1  0  0  0  0  0  0  0  0  0
   19.7610  -11.3420   12.1960 C   0  0  0  0  0  0  0  0  0  0  0  0
   19.8270  -10.2000   12.9350 C   0  0  0  0  0  0  0  0  0  0  0  0
   21.0570  -10.2510   13.6740 C   0  0  0  0  0  0  0  0  0  0  0  0
   21.6920   -9.3940   14.5710 C   0  0  0  0  0  0  0  0  0  0  0  0
   22.9270   -9.7520   15.1040 C   0  0  0  0  0  0  0  0  0  0  0  0
   23.5310  -10.9570   14.7550 C   0  0  0  0  0  0  0  0  0  0  0  0
   22.9250  -11.8220   13.8550 C   0  0  0  0  0  0  0  0  0  0  0  0
   21.6990  -11.4520   13.3100 C   0  0  0  0  0  0  0  0  0  0  0  0
   18.7450   -9.1590   12.9040 C   0  0  0  0  0  0  0  0  0  0  0  0
   15.1390  -11.1760   11.0630 C   0  0  2  0  0  0  0  0  0  0  0  0
   14.2120  -11.5630    9.9320 C   0  0  0  0  0  0  0  0  0  0  0  0
   18.4690   -8.6770   10.4330 C   0  0  0  0  0  0  0  0  0  0  0  0
   17.2710  -17.1320   13.9920 C   0  0  0  0  0  0  0  0  0  0  0  0
   17.5830  -19.6200   16.4340 C   0  0  0  0  0  0  0  0  0  0  0  0
   19.4430  -21.5210   17.8440 F   0  0  0  0  0  0  0  0  0  0  0  0
   18.2080  -21.1380   18.3430 C   0  0  0  0  0  0  0  0  0  0  0  0
   17.8670  -19.7200   17.9030 C   0  0  0  0  0  0  0  0  0  0  0  0
   18.1990  -18.4520   15.8040 N   0  0  0  0  0  0  0  0  0  0  0  0
   17.2430  -17.4020   15.4650 C   0  0  0  0  0  0  0  0  0  0  0  0
   17.5550  -15.7410   13.8500 O   0  0  0  0  0  0  0  0  0  0  0  0
   17.9720  -15.3550   10.2240 C   0  0  0  0  0  0  0  0  0  0  0  0
   18.2260  -14.0050   10.2100 C   0  0  0  0  0  0  0  0  0  0  0  0
   18.4480  -13.4100    9.0100 F   0  0  0  0  0  0  0  0  0  0  0  0
   18.2740  -13.2150   11.3500 C   0  0  1  0  0  0  0  0  0  0  0  0
   18.0340  -13.1030   13.9000 C   0  0  0  0  0  0  0  0  0  0  0  0
   17.5220  -10.7770   11.4710 N   0  0  0  0  0  0  0  0  0  0  0  0
   16.4910  -10.9580   10.4430 C   0  0  0  0  0  0  0  0  0  0  0  0
   15.1580  -12.1550   12.0310 F   0  0  0  0  0  0  0  0  0  0  0  0
   14.6780  -10.0550   11.7140 F   0  0  0  0  0  0  0  0  0  0  0  0
   12.8810  -11.2190   10.2450 O   0  0  0  0  0  0  0  0  0  0  0  0
   17.8690   -9.3490   11.6660 C   0  0  1  0  0  0  0  0  0  0  0  0
   20.8870  -12.1150   12.4060 N   0  0  0  0  0  0  0  0  0  0  0  0
  2  1  1  0
  3  2  1  0
  5  4  1  0
  6  5  1  0
  7  6  1  0
  8  7  1  0
  9  8  1  0
 10  9  1  0
 11 10  1  0
 12  7  1  0
 12 11  1  0
 13  6  1  0
 15 14  1  0
 20 19  1  0
 21 20  1  0
 21 18  1  0
 22 18  1  0
 23 22  1  0
 23 17  1  0
 24 17  1  0
 24  2  1  0
 25  3  1  0
 26 25  1  0
 27 26  1  0
 28 26  1  1
 28  4  1  0
 28  1  1  0
 29  1  1  0
  4 30  1  1
 31 14  1  0
 31 30  1  0
 14 32  1  1
 33 14  1  0
 34 15  1  0
 35 16  1  6
 35 30  1  0
 35 13  1  0
 36 12  1  0
 36  5  1  0
M  END
$$$$
5DXK
     RDKit          3D

 79 79  0  0  0  0  0  0  0  0999 V2000
    6.1970  -16.9320   33.9530 N   0  0  0  0  0  0  0  0  0  0  0  0
    6.1530  -15.4800   33.8150 C   0  0  2  0  0  0  0  0  0  0  0  0
    5.3010  -14.8270   34.8970 C   0  0  0  0  0  0  0  0  0  0  0  0
    4.2090  -15.2990   35.2130 O   0  0  0  0  0  0  0  0  0  0  0  0
    5.6180  -15.0870   32.4370 C   0  0  0  0  0  0  0  0  0  0  0  0
    6.5800  -15.3520   31.2910 C   0  0  0  0  0  0  0  0  0  0  0  0
    5.9980  -14.8950   29.9610 C   0  0  0  0  0  0  0  0  0  0  0  0
    7.0190  -15.0370   28.8420 C   0  0  0  0  0  0  0  0  0  0  0  0
    6.4650  -14.6340   27.5180 N   0  0  0  0  0  0  0  0  0  0  0  0
    5.8050  -13.7330   35.4560 N   0  0  0  0  0  0  0  0  0  0  0  0
    5.0470  -12.9610   36.4290 C   0  0  2  0  0  0  0  0  0  0  0  0
    3.8490  -12.3280   35.7380 C   0  0  0  0  0  0  0  0  0  0  0  0
    2.7720  -12.2040   36.3190 O   0  0  0  0  0  0  0  0  0  0  0  0
    5.9120  -11.8720   37.0850 C   0  0  2  0  0  0  0  0  0  0  0  0
    7.2090  -12.4800   37.6240 C   0  0  0  0  0  0  0  0  0  0  0  0
    5.1440  -11.1700   38.1960 C   0  0  0  0  0  0  0  0  0  0  0  0
    8.1460  -11.4710   38.2520 C   0  0  0  0  0  0  0  0  0  0  0  0
    4.0520  -11.9420   34.4830 N   0  0  0  0  0  0  0  0  0  0  0  0
    2.9950  -11.3620   33.6680 C   0  0  2  0  0  0  0  0  0  0  0  0
    1.8420  -12.3450   33.4900 C   0  0  0  0  0  0  0  0  0  0  0  0
    0.6760  -11.9490   33.5040 O   0  0  0  0  0  0  0  0  0  0  0  0
    3.5450  -10.9340   32.3070 C   0  0  0  0  0  0  0  0  0  0  0  0
    2.5480  -10.2750   31.3530 C   0  0  0  0  0  0  0  0  0  0  0  0
    1.8510   -9.1030   32.0250 C   0  0  0  0  0  0  0  0  0  0  0  0
    3.2480   -9.8260   30.0830 C   0  0  0  0  0  0  0  0  0  0  0  0
    2.1750  -13.6220   33.3210 N   0  0  0  0  0  0  0  0  0  0  0  0
    1.1750  -14.6850   33.2790 C   0  0  2  0  0  0  0  0  0  0  0  0
    0.2990  -14.6530   34.5240 C   0  0  0  0  0  0  0  0  0  0  0  0
   -0.9160  -14.4850   34.4360 O   0  0  0  0  0  0  0  0  0  0  0  0
    1.8420  -16.0590   33.1600 C   0  0  0  0  0  0  0  0  0  0  0  0
    1.9980  -16.5450   31.7530 C   0  0  0  0  0  0  0  0  0  0  0  0
    1.3830  -17.6880   31.2890 N   0  0  0  0  0  0  0  0  0  0  0  0
    2.7080  -16.0510   30.7110 C   0  0  0  0  0  0  0  0  0  0  0  0
    1.7040  -17.8750   30.0210 C   0  0  0  0  0  0  0  0  0  0  0  0
    2.5060  -16.8950   29.6460 N   0  0  0  0  0  0  0  0  0  0  0  0
    0.9360  -14.8080   35.6810 N   0  0  0  0  0  0  0  0  0  0  0  0
    0.2400  -14.8800   36.9620 C   0  0  2  0  0  0  0  0  0  0  0  0
   -0.6330  -13.6560   37.2260 C   0  0  0  0  0  0  0  0  0  0  0  0
   -1.7680  -13.7830   37.6860 O   0  0  0  0  0  0  0  0  0  0  0  0
    1.2500  -15.0560   38.1000 C   0  0  0  0  0  0  0  0  0  0  0  0
    0.6750  -14.8250   39.4880 C   0  0  0  0  0  0  0  0  0  0  0  0
    1.5560  -15.4360   40.5660 C   0  0  0  0  0  0  0  0  0  0  0  0
    2.9510  -15.0220   40.4430 N   0  0  0  0  0  0  0  0  0  0  0  0
    3.4470  -13.9090   40.9710 C   0  0  0  0  0  0  0  0  0  0  0  0
    4.7310  -13.6120   40.8130 N   0  0  0  0  0  0  0  0  0  0  0  0
    2.6610  -13.0940   41.6600 N   0  0  0  0  0  0  0  0  0  0  0  0
   -0.1060  -12.4750   36.9250 N   0  0  0  0  0  0  0  0  0  0  0  0
   -0.8500  -11.2410   37.1400 C   0  0  2  0  0  0  0  0  0  0  0  0
   -2.0380  -11.1310   36.1860 C   0  0  0  0  0  0  0  0  0  0  0  0
   -3.0700  -10.5570   36.5340 O   0  0  0  0  0  0  0  0  0  0  0  0
    0.0710  -10.0290   36.9870 C   0  0  0  0  0  0  0  0  0  0  0  0
    1.1980   -9.9390   38.0190 C   0  0  0  0  0  0  0  0  0  0  0  0
    2.0210   -8.6780   37.8190 C   0  0  0  0  0  0  0  0  0  0  0  0
    0.6410  -10.0030   39.4350 C   0  0  0  0  0  0  0  0  0  0  0  0
   -1.8940  -11.6870   34.9870 N   0  0  0  0  0  0  0  0  0  0  0  0
   -2.9740  -11.6680   34.0050 C   0  0  2  0  0  0  0  0  0  0  0  0
   -4.0310  -12.7290   34.3060 C   0  0  0  0  0  0  0  0  0  0  0  0
   -5.1470  -12.6660   33.7910 O   0  0  0  0  0  0  0  0  0  0  0  0
   -2.4210  -11.8670   32.5920 C   0  0  0  0  0  0  0  0  0  0  0  0
   -1.8050  -10.6410   31.9130 C   0  0  0  0  0  0  0  0  0  0  0  0
   -1.0540  -11.0390   30.6540 C   0  0  0  0  0  0  0  0  0  0  0  0
   -2.8780   -9.6120   31.5870 C   0  0  0  0  0  0  0  0  0  0  0  0
   -3.6760  -13.6990   35.1440 N   0  0  0  0  0  0  0  0  0  0  0  0
   -4.5850  -14.7900   35.4820 C   0  0  2  0  0  0  0  0  0  0  0  0
   -5.6920  -14.3480   36.4360 C   0  0  0  0  0  0  0  0  0  0  0  0
   -6.8720  -14.3640   36.0820 O   0  0  0  0  0  0  0  0  0  0  0  0
   -3.8110  -15.9580   36.0960 C   0  0  0  0  0  0  0  0  0  0  0  0
   -3.0100  -16.7740   35.0940 C   0  0  0  0  0  0  0  0  0  0  0  0
   -2.1390  -17.8200   35.7620 C   0  0  0  0  0  0  0  0  0  0  0  0
   -1.8440  -17.7280   36.9540 O   0  0  0  0  0  0  0  0  0  0  0  0
   -1.7250  -18.8230   34.9970 N   0  0  0  0  0  0  0  0  0  0  0  0
   -5.3050  -13.9590   37.6460 N   0  0  0  0  0  0  0  0  0  0  0  0
   -6.2690  -13.5880   38.6780 C   0  0  2  0  0  0  0  0  0  0  0  0
   -6.6770  -12.1180   38.5890 C   0  0  0  0  0  0  0  0  0  0  0  0
   -5.8370  -11.2360   38.4160 O   0  0  0  0  0  0  0  0  0  0  0  0
   -5.6990  -13.8940   40.0660 C   0  0  0  0  0  0  0  0  0  0  0  0
   -4.2070  -13.6240   40.1580 C   0  0  0  0  0  0  0  0  0  0  0  0
   -3.7330  -12.6520   39.5340 O   0  0  0  0  0  0  0  0  0  0  0  0
   -3.5060  -14.3900   40.8520 O   0  0  0  0  0  0  0  0  0  0  0  0
  2  1  1  1
  3  2  1  0
  4  3  2  0
  5  2  1  0
  6  5  1  0
  7  6  1  0
  8  7  1  0
  9  8  1  0
 10  3  1  0
 11 10  1  6
 12 11  1  0
 13 12  2  0
 14 11  1  0
 15 14  1  0
 14 16  1  1
 17 15  1  0
 18 12  1  0
 19 18  1  0
 20 19  1  0
 21 20  2  0
 19 22  1  6
 23 22  1  0
 24 23  1  0
 25 23  1  0
 26 20  1  0
 27 26  1  0
 28 27  1  0
 29 28  2  0
 27 30  1  1
 31 30  1  0
 32 31  1  0
 33 31  2  0
 34 32  2  0
 35 34  1  0
 35 33  1  0
 36 28  1  0
 37 36  1  0
 38 37  1  0
 39 38  2  0
 37 40  1  1
 41 40  1  0
 42 41  1  0
 43 42  1  0
 44 43  1  0
 45 44  1  0
 46 44  2  0
 47 38  1  0
 48 47  1  0
 49 48  1  0
 50 49  2  0
 48 51  1  6
 52 51  1  0
 53 52  1  0
 54 52  1  0
 55 49  1  0
 56 55  1  0
 57 56  1  0
 58 57  2  0
 56 59  1  6
 60 59  1  0
 61 60  1  0
 62 60  1  0
 63 57  1  0
 64 63  1  0
 65 64  1  0
 66 65  2  0
 64 67  1  1
 68 67  1  0
 69 68  1  0
 70 69  2  0
 71 69  1  0
 72 65  1  0
 73 72  1  0
 74 73  1  0
 75 74  2  0
 73 76  1  1
 77 76  1  0
 78 77  2  0
 79 77  1  0
M  END
$$$$
4IUI
     RDKit          3D

 76 76  0  0  0  0  0  0  0  0999 V2000
   30.9010   17.1140    6.3740 N   0  0  0  0  0  0  0  0  0  0  0  0
   29.9560   16.0030    6.3890 C   0  0  2  0  0  0  0  0  0  0  0  0
   29.3850   15.8010    4.9870 C   0  0  0  0  0  0  0  0  0  0  0  0
   28.8800   16.7380    4.3700 O   0  0  0  0  0  0  0  0  0  0  0  0
   28.8390   16.2510    7.4140 C   0  0  0  0  0  0  0  0  0  0  0  0
   27.9480   15.0360    7.7250 C   0  0  0  0  0  0  0  0  0  0  0  0
   26.6250   15.4470    8.4140 C   0  0  0  0  0  0  0  0  0  0  0  0
   26.7030   15.4370    9.9440 C   0  0  0  0  0  0  0  0  0  0  0  0
   25.5050   16.0290   10.6230 N   0  0  0  0  0  0  0  0  0  0  0  0
   29.4770   14.5720    4.4900 N   0  0  0  0  0  0  0  0  0  0  0  0
   29.0790   14.2460    3.1210 C   0  0  2  0  0  0  0  0  0  0  0  0
   27.6310   14.6190    2.8020 C   0  0  0  0  0  0  0  0  0  0  0  0
   27.3260   15.0680    1.6960 O   0  0  0  0  0  0  0  0  0  0  0  0
   29.3010   12.7500    2.8360 C   0  0  2  0  0  0  0  0  0  0  0  0
   30.7890   12.4070    2.9620 C   0  0  0  0  0  0  0  0  0  0  0  0
   28.7690   12.3830    1.4600 C   0  0  0  0  0  0  0  0  0  0  0  0
   31.0740   10.9220    2.9690 C   0  0  0  0  0  0  0  0  0  0  0  0
   26.7410   14.4300    3.7700 N   0  0  0  0  0  0  0  0  0  0  0  0
   25.3350   14.7610    3.5760 C   0  0  2  0  0  0  0  0  0  0  0  0
   25.1790   16.2600    3.3400 C   0  0  0  0  0  0  0  0  0  0  0  0
   24.3040   16.6950    2.5920 O   0  0  0  0  0  0  0  0  0  0  0  0
   24.5000   14.3020    4.7740 C   0  0  0  0  0  0  0  0  0  0  0  0
   22.9830   14.2480    4.5800 C   0  0  0  0  0  0  0  0  0  0  0  0
   22.6300   13.6340    3.2330 C   0  0  0  0  0  0  0  0  0  0  0  0
   22.3260   13.4750    5.7130 C   0  0  0  0  0  0  0  0  0  0  0  0
   26.0440   17.0440    3.9780 N   0  0  0  0  0  0  0  0  0  0  0  0
   26.0820   18.4860    3.7640 C   0  0  2  0  0  0  0  0  0  0  0  0
   26.3670   18.8070    2.3000 C   0  0  0  0  0  0  0  0  0  0  0  0
   25.7910   19.7350    1.7330 O   0  0  0  0  0  0  0  0  0  0  0  0
   27.1500   19.1310    4.6510 C   0  0  0  0  0  0  0  0  0  0  0  0
   26.8000   19.1480    6.1080 C   0  0  0  0  0  0  0  0  0  0  0  0
   27.7390   18.9730    7.1000 N   0  0  0  0  0  0  0  0  0  0  0  0
   25.6160   19.3330    6.7370 C   0  0  0  0  0  0  0  0  0  0  0  0
   27.1480   19.0410    8.2800 C   0  0  0  0  0  0  0  0  0  0  0  0
   25.8600   19.2590    8.0880 N   0  0  0  0  0  0  0  0  0  0  0  0
   27.2610   18.0320    1.6950 N   0  0  0  0  0  0  0  0  0  0  0  0
   27.6620   18.2560    0.3100 C   0  0  2  0  0  0  0  0  0  0  0  0
   26.5830   17.8220   -0.6780 C   0  0  0  0  0  0  0  0  0  0  0  0
   26.1310   18.6150   -1.5050 O   0  0  0  0  0  0  0  0  0  0  0  0
   28.9760   17.5270    0.0100 C   0  0  0  0  0  0  0  0  0  0  0  0
   29.4430   17.6560   -1.4310 C   0  0  0  0  0  0  0  0  0  0  0  0
   30.8510   17.1090   -1.6160 C   0  0  0  0  0  0  0  0  0  0  0  0
   30.9520   15.6980   -1.2540 N   0  0  0  0  0  0  0  0  0  0  0  0
   30.6380   14.6950   -2.0660 C   0  0  0  0  0  0  0  0  0  0  0  0
   30.1910   14.9440   -3.2880 N   0  0  0  0  0  0  0  0  0  0  0  0
   30.7630   13.4410   -1.6550 N   0  0  0  0  0  0  0  0  0  0  0  0
   26.1740   16.5610   -0.5840 N   0  0  0  0  0  0  0  0  0  0  0  0
   25.2000   15.9930   -1.5140 C   0  0  2  0  0  0  0  0  0  0  0  0
   23.9040   16.7980   -1.5960 C   0  0  0  0  0  0  0  0  0  0  0  0
   23.2590   16.8380   -2.6430 O   0  0  0  0  0  0  0  0  0  0  0  0
   24.8880   14.5390   -1.1480 C   0  0  0  0  0  0  0  0  0  0  0  0
   26.0620   13.5590   -1.1830 C   0  0  0  0  0  0  0  0  0  0  0  0
   25.5530   12.1280   -1.2600 C   0  0  0  0  0  0  0  0  0  0  0  0
   26.9740   13.8640   -2.3600 C   0  0  0  0  0  0  0  0  0  0  0  0
   23.5240   17.4350   -0.4940 N   0  0  0  0  0  0  0  0  0  0  0  0
   22.2660   18.1750   -0.4390 C   0  0  2  0  0  0  0  0  0  0  0  0
   22.3260   19.5220   -1.1560 C   0  0  0  0  0  0  0  0  0  0  0  0
   21.2960   20.1640   -1.3630 O   0  0  0  0  0  0  0  0  0  0  0  0
   21.8200   18.3700    1.0120 C   0  0  0  0  0  0  0  0  0  0  0  0
   21.1470   17.1710    1.6830 C   0  0  0  0  0  0  0  0  0  0  0  0
   21.2200   17.2840    3.1980 C   0  0  0  0  0  0  0  0  0  0  0  0
   19.7050   17.0280    1.2140 C   0  0  0  0  0  0  0  0  0  0  0  0
   23.5260   19.9460   -1.5380 N   0  0  0  0  0  0  0  0  0  0  0  0
   23.6960   21.2490   -2.1740 C   0  0  2  0  0  0  0  0  0  0  0  0
   23.6130   21.1970   -3.6980 C   0  0  0  0  0  0  0  0  0  0  0  0
   23.0260   22.0790   -4.3220 O   0  0  0  0  0  0  0  0  0  0  0  0
   25.0060   21.9010   -1.7330 C   0  0  0  0  0  0  0  0  0  0  0  0
   24.9560   22.4760   -0.3300 C   0  0  0  0  0  0  0  0  0  0  0  0
   25.5310   23.8750   -0.2590 C   0  0  0  0  0  0  0  0  0  0  0  0
   24.9090   24.7880    0.2830 O   0  0  0  0  0  0  0  0  0  0  0  0
   26.7280   24.0510   -0.8060 N   0  0  0  0  0  0  0  0  0  0  0  0
   24.2010   20.1650   -4.2940 N   0  0  0  0  0  0  0  0  0  0  0  0
   24.1960   20.0290   -5.7460 C   0  0  2  0  0  0  0  0  0  0  0  0
   23.7870   18.6250   -6.1790 C   0  0  0  0  0  0  0  0  0  0  0  0
   23.1100   18.4510   -7.1930 O   0  0  0  0  0  0  0  0  0  0  0  0
   25.5690   20.3800   -6.3230 C   0  0  0  0  0  0  0  0  0  0  0  0
  2  1  1  6
  3  2  1  0
  4  3  2  0
  5  2  1  0
  6  5  1  0
  7  6  1  0
  8  7  1  0
  9  8  1  0
 10  3  1  0
 11 10  1  1
 12 11  1  0
 13 12  2  0
 14 11  1  0
 15 14  1  0
 14 16  1  6
 17 15  1  0
 18 12  1  0
 19 18  1  0
 20 19  1  0
 21 20  2  0
 19 22  1  1
 23 22  1  0
 24 23  1  0
 25 23  1  0
 26 20  1  0
 27 26  1  0
 28 27  1  0
 29 28  2  0
 27 30  1  1
 31 30  1  0
 32 31  1  0
 33 31  2  0
 34 32  2  0
 35 34  1  0
 35 33  1  0
 36 28  1  0
 37 36  1  0
 38 37  1  0
 39 38  2  0
 37 40  1  6
 41 40  1  0
 42 41  1  0
 43 42  1  0
 44 43  1  0
 45 44  1  0
 46 44  2  0
 47 38  1  0
 48 47  1  0
 49 48  1  0
 50 49  2  0
 48 51  1  1
 52 51  1  0
 53 52  1  0
 54 52  1  0
 55 49  1  0
 56 55  1  0
 57 56  1  0
 58 57  2  0
 56 59  1  1
 60 59  1  0
 61 60  1  0
 62 60  1  0
 63 57  1  0
 64 63  1  0
 65 64  1  0
 66 65  2  0
 64 67  1  6
 68 67  1  0
 69 68  1  0
 70 69  2  0
 71 69  1  0
 72 65  1  0
 73 72  1  0
 74 73  1  0
 75 74  2  0
 73 76  1  1
M  END
$$$$
6DF6
     RDKit          3D

 36 41  0  0  0  0  0  0  0  0999 V2000
   57.6520   12.7890   60.5960 C   0  0  0  0  0  0  0  0  0  0  0  0
   55.4510   10.7410   54.1780 C   0  0  0  0  0  0  0  0  0  0  0  0
   57.9750   13.0070   59.2630 C   0  0  0  0  0  0  0  0  0  0  0  0
   57.5060   12.1310   58.2790 C   0  0  0  0  0  0  0  0  0  0  0  0
   57.9180    9.0390   54.8280 C   0  0  0  0  0  0  0  0  0  0  0  0
   57.8720   12.3990   56.8260 C   0  0  2  0  0  0  0  0  0  0  0  0
   57.3620   11.3080   55.8890 C   0  0  0  0  0  0  0  0  0  0  0  0
   58.2150   10.2210   55.7130 C   0  0  0  0  0  0  0  0  0  0  0  0
   57.4130    9.4690   53.4650 C   0  0  0  0  0  0  0  0  0  0  0  0
   56.8550   11.6930   60.9520 C   0  0  0  0  0  0  0  0  0  0  0  0
   56.7080   11.0410   58.6450 C   0  0  0  0  0  0  0  0  0  0  0  0
   56.3790   10.8220   59.9730 C   0  0  0  0  0  0  0  0  0  0  0  0
   56.0140    9.6370   53.6040 O   0  0  0  0  0  0  0  0  0  0  0  0
   56.0170   11.5280   55.2440 C   0  0  0  0  0  0  0  0  0  0  0  0
   55.2500   12.6320   55.6810 C   0  0  0  0  0  0  0  0  0  0  0  0
   54.0100   12.9490   55.1560 C   0  0  0  0  0  0  0  0  0  0  0  0
   53.4840   12.1610   54.1410 C   0  0  0  0  0  0  0  0  0  0  0  0
   54.2040   11.0710   53.6650 C   0  0  0  0  0  0  0  0  0  0  0  0
   52.2720   12.4510   53.6020 O   0  0  0  0  0  0  0  0  0  0  0  0
   59.5320   10.2100   56.4090 C   0  0  0  0  0  0  0  0  0  0  0  0
   60.3240    9.0560   56.5790 C   0  0  0  0  0  0  0  0  0  0  0  0
   61.5580    9.1440   57.2240 C   0  0  0  0  0  0  0  0  0  0  0  0
   62.0230   10.3830   57.6950 C   0  0  0  0  0  0  0  0  0  0  0  0
   61.2620   11.5360   57.5330 C   0  0  0  0  0  0  0  0  0  0  0  0
   60.0390   11.4540   56.8830 C   0  0  0  0  0  0  0  0  0  0  0  0
   59.2850   12.5610   56.7170 O   0  0  0  0  0  0  0  0  0  0  0  0
   63.2190   10.4860   58.3250 O   0  0  0  0  0  0  0  0  0  0  0  0
   56.4980   11.4400   62.2370 O   0  0  0  0  0  0  0  0  0  0  0  0
   57.2940   11.8350   63.3550 C   0  0  0  0  0  0  0  0  0  0  0  0
   56.5070   11.4280   64.6020 C   0  0  0  0  0  0  0  0  0  0  0  0
   55.2170   12.1440   64.6520 N   0  0  0  0  0  0  0  0  0  0  0  0
   55.0250   12.7420   65.9870 C   0  0  0  0  0  0  0  0  0  0  0  0
   53.7590   11.9030   66.2280 C   0  0  2  0  0  0  0  0  0  0  0  0
   54.0570   11.2510   64.8630 C   0  0  0  0  0  0  0  0  0  0  0  0
   52.4740   12.7350   66.3090 C   0  0  0  0  0  0  0  0  0  0  0  0
   52.5090   13.5780   67.4330 F   0  0  0  0  0  0  0  0  0  0  0  0
  3  1  1  0
  4  3  1  0
  6  4  1  1
  7  6  1  0
  8  5  1  0
  8  7  1  0
  9  5  1  0
 10  1  1  0
 11  4  1  0
 12 11  1  0
 12 10  1  0
 13  9  1  0
 13  2  1  0
 14  2  1  0
 14  7  1  0
 15 14  1  0
 16 15  1  0
 17 16  1  0
 18 17  1  0
 18  2  1  0
 19 17  1  0
 20  8  1  0
 21 20  1  0
 22 21  1  0
 23 22  1  0
 24 23  1  0
 25 20  1  0
 25 24  1  0
 26  6  1  0
 26 25  1  0
 27 23  1  0
 28 10  1  0
 29 28  1  0
 30 29  1  0
 31 30  1  0
 32 31  1  0
 33 32  1  0
 34 33  1  0
 34 31  1  0
 33 35  1  6
 36 35  1  0
M  END
$$$$
7RS2
     RDKit          3D

 33 37  0  0  0  0  0  0  0  0999 V2000
    0.5230    9.5850   17.0200 C   0  0  0  0  0  0  0  0  0  0  0  0
    2.8180    8.3520   15.8370 C   0  0  0  0  0  0  0  0  0  0  0  0
    3.8130    7.4860   21.8370 C   0  0  0  0  0  0  0  0  0  0  0  0
    5.8250    8.9300   21.6980 C   0  0  0  0  0  0  0  0  0  0  0  0
   -3.9620    5.6220   17.7520 C   0  0  0  0  0  0  0  0  0  0  0  0
    0.1430    4.5460   15.0430 C   0  0  0  0  0  0  0  0  0  0  0  0
   -0.5440    6.8670   14.8240 C   0  0  0  0  0  0  0  0  0  0  0  0
    1.0130    8.2020   19.2270 C   0  0  1  0  0  0  0  0  0  0  0  0
   -0.3850    7.5020   19.5310 C   0  0  1  0  0  0  0  0  0  0  0  0
   -0.1870    5.9880   19.5930 C   0  0  1  0  0  0  0  0  0  0  0  0
    0.5290    5.8470   20.9220 C   0  0  0  0  0  0  0  0  0  0  0  0
    1.7380    8.0810   20.3890 C   0  0  1  0  0  0  0  0  0  0  0  0
    0.7990    7.3280   21.3820 C   0  0  1  0  0  0  0  0  0  0  0  0
   -0.5150    7.8170   20.9910 O   0  0  0  0  0  0  0  0  0  0  0  0
    3.1420    8.2780   20.8580 C   0  0  1  0  0  0  0  0  0  0  0  0
    1.2900    8.6340   17.7830 C   0  0  0  0  0  0  0  0  0  0  0  0
    0.8920    9.9160   15.6930 C   0  0  0  0  0  0  0  0  0  0  0  0
    2.0040    9.3040   15.0900 C   0  0  0  0  0  0  0  0  0  0  0  0
    2.4440    8.0500   17.1600 C   0  0  0  0  0  0  0  0  0  0  0  0
    5.1490    7.8040   22.2360 C   0  0  0  0  0  0  0  0  0  0  0  0
    5.1540    9.7490   20.7160 C   0  0  0  0  0  0  0  0  0  0  0  0
    3.8280    9.4260   20.3160 C   0  0  0  0  0  0  0  0  0  0  0  0
    7.1120    9.2300   22.0830 O   0  0  0  0  0  0  0  0  0  0  0  0
    2.3890    9.5870   13.8280 O   0  0  0  0  0  0  0  0  0  0  0  0
   -1.5070    5.5090   16.6920 C   0  0  0  0  0  0  0  0  0  0  0  0
   -0.7240    4.4040   16.2230 C   0  0  0  0  0  0  0  0  0  0  0  0
    0.2570    5.7660   14.3290 C   0  0  0  0  0  0  0  0  0  0  0  0
   -1.4030    6.7560   15.9720 C   0  0  0  0  0  0  0  0  0  0  0  0
    1.2530    5.9360   12.9820 C   0  0  0  0  0  0  0  0  0  0  0  0
   -1.8190    5.1350   19.5690 S   0  0  1  0  0  0  0  0  0  0  0  0
   -1.4430    3.7790   19.8440 O   0  0  0  0  0  0  0  0  0  0  0  0
   -2.6620    5.6700   20.6100 O   0  0  0  0  0  0  0  0  0  0  0  0
   -2.4460    5.4330   17.9580 N   0  0  0  0  0  0  0  0  0  0  0  0
  9  8  1  0
 10  9  1  0
 10 11  1  1
 12  8  1  0
 13 12  1  0
 13 11  1  6
 14 13  1  0
  9 14  1  1
 12 15  1  6
 15  3  1  1
  8 16  1  6
 16  1  1  0
 17  1  1  0
 18 17  1  0
 18  2  1  0
 19  2  1  0
 19 16  1  0
 20  3  1  0
 20  4  1  0
 21  4  1  0
 22 21  1  0
 22 15  1  0
 23  4  1  0
 24 18  1  0
 26  6  1  0
 26 25  1  0
 27  6  1  0
 27  7  1  0
 28  7  1  0
 28 25  1  0
 29 27  1  0
 30 10  1  0
 30 31  1  1
 32 30  1  0
 33 30  1  0
 33 25  1  0
 33  5  1  0
M  END
$$$$
2QXM
     RDKit          3D

 17 19  0  0  0  0  0  0  0  0999 V2000
   -1.4320    3.3280   -4.5510 N   0  0  0  0  0  0  0  0  0  0  0  0
   -0.2690    3.2480   -5.1720 C   0  0  0  0  0  0  0  0  0  0  0  0
    0.8140    3.9160   -4.8300 N   0  0  0  0  0  0  0  0  0  0  0  0
    1.7920    3.5790   -5.6660 C   0  0  0  0  0  0  0  0  0  0  0  0
    3.1280    3.9510   -5.7860 C   0  0  0  0  0  0  0  0  0  0  0  0
    3.8720    3.3800   -6.8300 C   0  0  0  0  0  0  0  0  0  0  0  0
    5.2180    3.7300   -6.9830 C   0  0  0  0  0  0  0  0  0  0  0  0
    5.8260    4.5760   -6.0610 C   0  0  0  0  0  0  0  0  0  0  0  0
    7.1630    4.9260   -6.2130 C   0  0  0  0  0  0  0  0  0  0  0  0
    7.8890    4.4540   -7.3030 C   0  0  0  0  0  0  0  0  0  0  0  0
    7.2860    3.6180   -8.2330 C   0  0  0  0  0  0  0  0  0  0  0  0
    5.9540    3.2670   -8.0680 C   0  0  0  0  0  0  0  0  0  0  0  0
   -0.0270    2.4800   -6.2310 N   0  0  0  0  0  0  0  0  0  0  0  0
    0.9180    4.8470   -3.6670 C   0  0  0  0  0  0  0  0  0  0  0  0
    1.2500    2.6580   -6.5700 C   0  0  0  0  0  0  0  0  0  0  0  0
    2.0000    2.1290   -7.5590 N   0  0  0  0  0  0  0  0  0  0  0  0
    3.2710    2.4640   -7.7000 C   0  0  0  0  0  0  0  0  0  0  0  0
  2  1  1  0
  3  2  1  0
  4  3  1  0
  5  4  1  0
  6  5  1  0
  7  6  1  0
  8  7  1  0
  9  8  1  0
 10  9  1  0
 11 10  1  0
 12  7  1  0
 12 11  1  0
 13  2  1  0
 14  3  1  0
 15 13  1  0
 15  4  1  0
 16 15  1  0
 17 16  1  0
 17  6  1  0
M  END
$$$$
8AOY
     RDKit          3D

 42 43  0  0  0  0  0  0  0  0999 V2000
   13.0860    7.9800   14.3720 N   0  0  0  0  0  0  0  0  0  0  0  0
   13.9930    9.1590   14.3620 C   0  0  2  0  0  0  0  0  0  0  0  0
   13.3000   10.3650   13.7390 C   0  0  0  0  0  0  0  0  0  0  0  0
   12.4130   10.2360   12.8960 O   0  0  0  0  0  0  0  0  0  0  0  0
   15.3160    8.8700   13.6340 C   0  0  0  0  0  0  0  0  0  0  0  0
   15.1500    8.2610   12.2690 C   0  0  0  0  0  0  0  0  0  0  0  0
   15.0490    9.0640   11.1320 C   0  0  0  0  0  0  0  0  0  0  0  0
   15.1050    6.8830   12.1150 C   0  0  0  0  0  0  0  0  0  0  0  0
   14.8900    8.4930    9.8700 C   0  0  0  0  0  0  0  0  0  0  0  0
   14.9410    6.3100   10.8600 C   0  0  0  0  0  0  0  0  0  0  0  0
   14.8410    7.1140    9.7360 C   0  0  0  0  0  0  0  0  0  0  0  0
   13.6530   11.5860   14.1800 N   0  0  0  0  0  0  0  0  0  0  0  0
   13.0690   12.7930   13.6140 C   0  0  2  0  0  0  0  0  0  0  0  0
   13.6700   13.1240   12.2420 C   0  0  0  0  0  0  0  0  0  0  0  0
   14.7500   12.6670   11.8970 O   0  0  0  0  0  0  0  0  0  0  0  0
   13.3780   13.8400   14.6760 C   0  0  0  0  0  0  0  0  0  0  0  0
   14.7000   13.3950   15.2460 C   0  0  0  0  0  0  0  0  0  0  0  0
   14.6250   11.8800   15.2450 C   0  0  0  0  0  0  0  0  0  0  0  0
   12.9430   13.9280   11.4920 N   0  0  0  0  0  0  0  0  0  0  0  0
   13.3450   14.3330   10.1760 C   0  0  2  0  0  0  0  0  0  0  0  0
   14.4600   15.3530   10.2120 C   0  0  0  0  0  0  0  0  0  0  0  0
   14.3930   16.3400   10.9430 O   0  0  0  0  0  0  0  0  0  0  0  0
   12.1580   14.9480    9.4380 C   0  0  0  0  0  0  0  0  0  0  0  0
   15.4660   15.1220    9.3720 N   0  0  0  0  0  0  0  0  0  0  0  0
   16.5450   16.0650    9.0570 C   0  0  1  0  0  0  0  0  0  0  0  0
   17.8110   15.7400    9.8530 C   0  0  1  0  0  0  0  0  0  0  0  0
   17.6200   15.9080   11.3460 C   0  0  0  0  0  0  0  0  0  0  0  0
   18.1650   14.3610    9.5040 O   0  0  0  0  0  0  0  0  0  0  0  0
   19.5810   13.7060    9.9000 P   0  0  0  0  0  0  0  0  0  0  0  0
   19.6270   12.4820    9.0260 O   0  0  0  0  0  0  0  0  0  0  0  0
   19.5520   13.3620   11.3840 O   0  0  0  0  0  0  0  0  0  0  0  0
   20.6500   14.7440    9.5920 O   0  0  0  0  0  0  0  0  0  0  0  0
   16.7780   16.0700    7.5530 C   0  0  0  0  0  0  0  0  0  0  0  0
   16.4120   15.1020    6.8900 O   0  0  0  0  0  0  0  0  0  0  0  0
   17.3570   17.1530    7.0520 N   0  0  0  0  0  0  0  0  0  0  0  0
   17.6640   17.2530    5.6380 C   0  0  2  0  0  0  0  0  0  0  0  0
   19.0950   17.5430    5.3380 C   0  0  0  0  0  0  0  0  0  0  0  0
   19.8380   17.9600    6.2310 O   0  0  0  0  0  0  0  0  0  0  0  0
   16.7930   18.3130    4.9410 C   0  0  0  0  0  0  0  0  0  0  0  0
   15.3350   17.9370    5.0440 C   0  0  0  0  0  0  0  0  0  0  0  0
   17.0760   19.7080    5.4690 C   0  0  0  0  0  0  0  0  0  0  0  0
   19.5050   17.3860    4.1440 O   0  0  0  0  0  0  0  0  0  0  0  0
  2  1  1  6
  3  2  1  0
  4  3  2  0
  5  2  1  0
  6  5  1  0
  7  6  2  0
  8  6  1  0
  9  7  1  0
 10  8  2  0
 11 10  1  0
 11  9  2  0
 12  3  1  0
 13 12  1  0
 13 14  1  6
 15 14  2  0
 16 13  1  0
 17 16  1  0
 18 17  1  0
 18 12  1  0
 19 14  1  0
 20 19  1  0
 21 20  1  0
 22 21  2  0
 20 23  1  1
 24 21  1  0
 25 24  1  6
 26 25  1  0
 26 27  1  1
 28 26  1  0
 29 28  1  0
 30 29  1  0
 31 29  1  0
 32 29  1  0
 33 25  1  0
 34 33  1  0
 35 33  1  0
 36 35  1  1
 37 36  1  0
 38 37  2  0
 39 36  1  0
 40 39  1  0
 41 39  1  0
 42 37  1  0
M  END
$$$$
6SQ0
     RDKit          3D

 69 69  0  0  0  0  0  0  0  0999 V2000
   60.9580   -2.8490    6.7960 N   0  0  0  0  0  0  0  0  0  0  0  0
   59.5580   -3.2320    7.0370 C   0  0  2  0  0  0  0  0  0  0  0  0
   58.7370   -3.2720    5.7430 C   0  0  0  0  0  0  0  0  0  0  0  0
   57.7750   -2.5120    5.5820 O   0  0  0  0  0  0  0  0  0  0  0  0
   59.0650   -2.1810    8.0480 C   0  0  0  0  0  0  0  0  0  0  0  0
   60.3050   -1.6330    8.6790 C   0  0  0  0  0  0  0  0  0  0  0  0
   61.3610   -1.6890    7.6140 C   0  0  0  0  0  0  0  0  0  0  0  0
   59.1180   -4.1730    4.8180 N   0  0  0  0  0  0  0  0  0  0  0  0
   58.4450   -4.3090    3.5250 C   0  0  2  0  0  0  0  0  0  0  0  0
   57.7510   -5.6620    3.3580 C   0  0  0  0  0  0  0  0  0  0  0  0
   57.8760   -6.5380    4.2210 O   0  0  0  0  0  0  0  0  0  0  0  0
   59.4330   -4.0710    2.3850 C   0  0  0  0  0  0  0  0  0  0  0  0
   57.0160   -5.8190    2.2360 N   0  0  0  0  0  0  0  0  0  0  0  0
   56.3080   -7.0390    1.8450 C   0  0  2  0  0  0  0  0  0  0  0  0
   57.3020   -8.1900    1.6650 C   0  0  0  0  0  0  0  0  0  0  0  0
   57.0550   -9.2800    2.1780 O   0  0  0  0  0  0  0  0  0  0  0  0
   55.5240   -6.8110    0.5390 C   0  0  0  0  0  0  0  0  0  0  0  0
   58.4330   -7.9310    0.9580 N   0  0  0  0  0  0  0  0  0  0  0  0
   59.5070   -8.8920    0.6750 C   0  0  2  0  0  0  0  0  0  0  0  0
   60.1120   -9.4760    1.9540 C   0  0  0  0  0  0  0  0  0  0  0  0
   60.3430  -10.6820    2.0070 O   0  0  0  0  0  0  0  0  0  0  0  0
   60.5980   -8.2610   -0.2070 C   0  0  0  0  0  0  0  0  0  0  0  0
   60.3120   -8.6290    2.9920 N   0  0  0  0  0  0  0  0  0  0  0  0
   60.8400   -9.0200    4.3020 C   0  0  2  0  0  0  0  0  0  0  0  0
   59.9320  -10.0830    4.9340 C   0  0  0  0  0  0  0  0  0  0  0  0
   60.3910  -11.2020    5.1910 O   0  0  0  0  0  0  0  0  0  0  0  0
   60.9750   -7.7950    5.2220 C   0  0  0  0  0  0  0  0  0  0  0  0
   58.6300   -9.7620    5.0790 N   0  0  0  0  0  0  0  0  0  0  0  0
   57.6140  -10.6570    5.6370 C   0  0  2  0  0  0  0  0  0  0  0  0
   57.4690  -11.9260    4.8090 C   0  0  0  0  0  0  0  0  0  0  0  0
   57.5760  -13.0120    5.3690 O   0  0  0  0  0  0  0  0  0  0  0  0
   56.2560   -9.9480    5.7900 C   0  0  0  0  0  0  0  0  0  0  0  0
   56.1430   -8.9390    6.9350 C   0  0  0  0  0  0  0  0  0  0  0  0
   57.3140  -11.7930    3.4700 N   0  0  0  0  0  0  0  0  0  0  0  0
   57.1260  -12.9190    2.5590 C   0  0  2  0  0  0  0  0  0  0  0  0
   58.3000  -13.8930    2.4960 C   0  0  0  0  0  0  0  0  0  0  0  0
   58.0550  -15.0990    2.4380 O   0  0  0  0  0  0  0  0  0  0  0  0
   56.7550  -12.4220    1.1480 C   0  0  0  0  0  0  0  0  0  0  0  0
   55.7220  -13.2290    0.3590 C   0  0  0  0  0  0  0  0  0  0  0  0
   54.5200  -13.6160    1.2140 C   0  0  0  0  0  0  0  0  0  0  0  0
   55.2490  -12.4430   -0.8350 C   0  0  0  0  0  0  0  0  0  0  0  0
   59.5570  -13.3950    2.5110 N   0  0  0  0  0  0  0  0  0  0  0  0
   60.7530  -14.2540    2.4710 C   0  0  2  0  0  0  0  0  0  0  0  0
   60.9030  -15.0860    3.7500 C   0  0  0  0  0  0  0  0  0  0  0  0
   61.2690  -16.2620    3.6770 O   0  0  0  0  0  0  0  0  0  0  0  0
   62.0280  -13.4360    2.2090 C   0  0  0  0  0  0  0  0  0  0  0  0
   60.5950  -14.4800    4.9100 N   0  0  0  0  0  0  0  0  0  0  0  0
   60.6700  -15.1350    6.2150 C   0  0  2  0  0  0  0  0  0  0  0  0
   59.4610  -16.0270    6.5150 C   0  0  0  0  0  0  0  0  0  0  0  0
   59.6300  -17.0390    7.1990 O   0  0  0  0  0  0  0  0  0  0  0  0
   60.8950  -14.1090    7.3330 C   0  0  0  0  0  0  0  0  0  0  0  0
   58.2500  -15.6650    6.0160 N   0  0  0  0  0  0  0  0  0  0  0  0
   57.0300  -16.4530    6.2410 C   0  0  2  0  0  0  0  0  0  0  0  0
   56.9190  -17.6550    5.2950 C   0  0  0  0  0  0  0  0  0  0  0  0
   56.3020  -18.6580    5.6610 O   0  0  0  0  0  0  0  0  0  0  0  0
   55.7440  -15.5950    6.2080 C   0  0  0  0  0  0  0  0  0  0  0  0
   55.5180  -14.5960    7.3610 C   0  0  0  0  0  0  0  0  0  0  0  0
   54.6120  -13.4790    6.9300 C   0  0  0  0  0  0  0  0  0  0  0  0
   54.9100  -15.2580    8.5800 C   0  0  0  0  0  0  0  0  0  0  0  0
   57.5020  -17.5510    4.0810 N   0  0  0  0  0  0  0  0  0  0  0  0
   57.5150  -18.6360    3.0950 C   0  0  2  0  0  0  0  0  0  0  0  0
   58.9340  -19.2500    3.0150 C   0  0  0  0  0  0  0  0  0  0  0  0
   59.5620  -19.2630    1.9470 O   0  0  0  0  0  0  0  0  0  0  0  0
   56.9920  -18.1560    1.7260 C   0  0  0  0  0  0  0  0  0  0  0  0
   59.4240  -19.7570    4.1780 N   0  0  0  0  0  0  0  0  0  0  0  0
   60.7380  -20.3840    4.4030 C   0  0  2  0  0  0  0  0  0  0  0  0
   61.9220  -19.5500    3.9080 C   0  0  0  0  0  0  0  0  0  0  0  0
   62.7980  -19.1930    4.6940 O   0  0  0  0  0  0  0  0  0  0  0  0
   60.7830  -21.7850    3.8070 C   0  0  0  0  0  0  0  0  0  0  0  0
  2  1  1  0
  2  3  1  6
  4  3  2  0
  5  2  1  0
  6  5  1  0
  7  6  1  0
  7  1  1  0
  8  3  1  0
  9  8  1  0
 10  9  1  0
 11 10  2  0
  9 12  1  6
 13 10  1  0
 14 13  1  0
 15 14  1  0
 16 15  2  0
 14 17  1  6
 18 15  1  0
 19 18  1  0
 20 19  1  0
 21 20  2  0
 19 22  1  1
 23 20  1  0
 24 23  1  0
 25 24  1  0
 26 25  2  0
 24 27  1  1
 28 25  1  0
 29 28  1  0
 30 29  1  0
 31 30  2  0
 29 32  1  6
 33 32  1  0
 34 30  1  0
 35 34  1  0
 36 35  1  0
 37 36  2  0
 35 38  1  6
 39 38  1  0
 40 39  1  0
 41 39  1  0
 42 36  1  0
 43 42  1  0
 44 43  1  0
 45 44  2  0
 43 46  1  1
 47 44  1  0
 48 47  1  0
 49 48  1  0
 50 49  2  0
 48 51  1  1
 52 49  1  0
 53 52  1  0
 54 53  1  0
 55 54  2  0
 53 56  1  6
 57 56  1  0
 58 57  1  0
 59 57  1  0
 60 54  1  0
 61 60  1  0
 62 61  1  0
 63 62  2  0
 61 64  1  6
 65 62  1  0
 66 65  1  0
 67 66  1  0
 68 67  2  0
 66 69  1  6
M  END
$$$$
1QKT
     RDKit          3D

 20 23  0  0  0  0  0  0  0  0999 V2000
    0.8670   53.1380  165.0150 C   0  0  0  0  0  0  0  0  0  0  0  0
    2.2480   53.1920  164.7900 C   0  0  0  0  0  0  0  0  0  0  0  0
    3.0360   52.0260  164.9340 C   0  0  0  0  0  0  0  0  0  0  0  0
    4.3950   52.1060  164.7050 O   0  0  0  0  0  0  0  0  0  0  0  0
    2.4410   50.7930  165.3090 C   0  0  0  0  0  0  0  0  0  0  0  0
    1.0210   50.7210  165.5500 C   0  0  0  0  0  0  0  0  0  0  0  0
    0.3830   49.3850  165.9720 C   0  0  0  0  0  0  0  0  0  0  0  0
   -1.1480   49.4320  166.2430 C   0  0  0  0  0  0  0  0  0  0  0  0
   -1.8940   50.4480  165.3740 C   0  0  2  0  0  0  0  0  0  0  0  0
   -1.2990   51.8780  165.6350 C   0  0  1  0  0  0  0  0  0  0  0  0
    0.2190   51.9220  165.3920 C   0  0  0  0  0  0  0  0  0  0  0  0
   -2.0700   52.8890  164.7620 C   0  0  0  0  0  0  0  0  0  0  0  0
   -3.5920   52.8930  164.9630 C   0  0  0  0  0  0  0  0  0  0  0  0
   -4.2090   51.5020  164.7630 C   0  0  1  0  0  0  0  0  0  0  0  0
   -3.4470   50.4920  165.6850 C   0  0  1  0  0  0  0  0  0  0  0  0
   -4.3350   49.2580  165.5460 C   0  0  0  0  0  0  0  0  0  0  0  0
   -5.7850   49.8370  165.7130 C   0  0  0  0  0  0  0  0  0  0  0  0
   -5.6600   51.3340  165.3010 C   0  0  2  0  0  0  0  0  0  0  0  0
   -6.7310   51.6750  164.3560 O   0  0  0  0  0  0  0  0  0  0  0  0
   -4.1860   51.1040  163.2410 C   0  0  0  0  0  0  0  0  0  0  0  0
  2  1  1  0
  3  2  1  0
  4  3  1  0
  5  3  1  0
  6  5  1  0
  7  6  1  0
  8  7  1  0
  9  8  1  1
 10  9  1  0
 11 10  1  0
 11  6  1  0
 11  1  1  0
 10 12  1  6
 13 12  1  0
 14 13  1  0
 15 14  1  0
 15  9  1  0
 15 16  1  6
 17 16  1  0
 18 17  1  0
 18 14  1  0
 18 19  1  6
 14 20  1  6
M  END
$$$$
8ALW
     RDKit          3D

 42 43  0  0  0  0  0  0  0  0999 V2000
  -12.8250    7.9460  -14.3810 N   0  0  0  0  0  0  0  0  0  0  0  0
  -13.7910    9.0770  -14.3890 C   0  0  2  0  0  0  0  0  0  0  0  0
  -13.2000   10.3120  -13.7180 C   0  0  0  0  0  0  0  0  0  0  0  0
  -12.3990   10.2060  -12.7880 O   0  0  0  0  0  0  0  0  0  0  0  0
  -15.1130    8.6960  -13.7130 C   0  0  0  0  0  0  0  0  0  0  0  0
  -14.9760    8.1770  -12.3120 C   0  0  0  0  0  0  0  0  0  0  0  0
  -14.9840    9.0450  -11.2210 C   0  0  0  0  0  0  0  0  0  0  0  0
  -14.8900    6.8060  -12.0730 C   0  0  0  0  0  0  0  0  0  0  0  0
  -14.8630    8.5500   -9.9220 C   0  0  0  0  0  0  0  0  0  0  0  0
  -14.7690    6.3110  -10.7810 C   0  0  0  0  0  0  0  0  0  0  0  0
  -14.7570    7.1830   -9.7040 C   0  0  0  0  0  0  0  0  0  0  0  0
  -13.5830   11.5250  -14.1640 N   0  0  0  0  0  0  0  0  0  0  0  0
  -13.0030   12.7450  -13.6110 C   0  0  2  0  0  0  0  0  0  0  0  0
  -13.5830   13.1080  -12.2350 C   0  0  0  0  0  0  0  0  0  0  0  0
  -14.6620   12.6680  -11.8710 O   0  0  0  0  0  0  0  0  0  0  0  0
  -13.3310   13.7780  -14.6910 C   0  0  0  0  0  0  0  0  0  0  0  0
  -14.6450   13.3040  -15.2490 C   0  0  0  0  0  0  0  0  0  0  0  0
  -14.5640   11.7930  -15.2270 C   0  0  0  0  0  0  0  0  0  0  0  0
  -12.8400   13.9150  -11.4910 N   0  0  0  0  0  0  0  0  0  0  0  0
  -13.2360   14.3560  -10.1810 C   0  0  2  0  0  0  0  0  0  0  0  0
  -14.3370   15.3780  -10.2370 C   0  0  0  0  0  0  0  0  0  0  0  0
  -14.2530   16.3590  -10.9810 O   0  0  0  0  0  0  0  0  0  0  0  0
  -12.0630   14.9750   -9.4660 C   0  0  0  0  0  0  0  0  0  0  0  0
  -15.3380   15.1500   -9.3860 N   0  0  0  0  0  0  0  0  0  0  0  0
  -16.4130   16.1090   -9.0500 C   0  0  1  0  0  0  0  0  0  0  0  0
  -17.6960   15.8000   -9.8310 C   0  0  1  0  0  0  0  0  0  0  0  0
  -17.5160   15.9380  -11.3270 C   0  0  0  0  0  0  0  0  0  0  0  0
  -18.0400   14.4230   -9.4890 O   0  0  0  0  0  0  0  0  0  0  0  0
  -19.4590   13.7550   -9.8720 P   0  0  0  0  0  0  0  0  0  0  0  0
  -19.4270   13.4010  -11.3380 O   0  0  0  0  0  0  0  0  0  0  0  0
  -19.5350   12.5300   -8.9630 O   0  0  0  0  0  0  0  0  0  0  0  0
  -20.5250   14.7860   -9.5580 O   0  0  0  0  0  0  0  0  0  0  0  0
  -16.6390   16.1050   -7.5370 C   0  0  0  0  0  0  0  0  0  0  0  0
  -16.2990   15.1090   -6.8870 O   0  0  0  0  0  0  0  0  0  0  0  0
  -17.2070   17.1880   -7.0140 N   0  0  0  0  0  0  0  0  0  0  0  0
  -17.5070   17.2770   -5.6020 C   0  0  2  0  0  0  0  0  0  0  0  0
  -18.9480   17.5810   -5.3180 C   0  0  0  0  0  0  0  0  0  0  0  0
  -19.6960   17.9780   -6.2220 O   0  0  0  0  0  0  0  0  0  0  0  0
  -16.6400   18.3390   -4.9090 C   0  0  0  0  0  0  0  0  0  0  0  0
  -15.1810   17.9530   -5.0140 C   0  0  0  0  0  0  0  0  0  0  0  0
  -16.9040   19.7270   -5.4890 C   0  0  0  0  0  0  0  0  0  0  0  0
  -19.3550   17.4440   -4.1480 O   0  0  0  0  0  0  0  0  0  0  0  0
  2  1  1  1
  3  2  1  0
  4  3  2  0
  5  2  1  0
  6  5  1  0
  7  6  2  0
  8  6  1  0
  9  7  1  0
 10  8  2  0
 11 10  1  0
 11  9  2  0
 12  3  1  0
 13 12  1  0
 13 14  1  1
 15 14  2  0
 16 13  1  0
 17 16  1  0
 18 17  1  0
 18 12  1  0
 19 14  1  0
 20 19  1  0
 21 20  1  0
 22 21  2  0
 20 23  1  6
 24 21  1  0
 25 24  1  1
 26 25  1  0
 26 27  1  6
 28 26  1  0
 29 28  1  0
 30 29  1  0
 31 29  1  0
 32 29  1  0
 33 25  1  0
 34 33  1  0
 35 33  1  0
 36 35  1  6
 37 36  1  0
 38 37  2  0
 39 36  1  0
 40 39  1  0
 41 39  1  0
 42 37  1  0
M  END
$$$$
1A52
     RDKit          3D

 20 23  0  0  0  0  0  0  0  0999 V2000
  107.0080   15.8600   99.4560 C   0  0  0  0  0  0  0  0  0  0  0  0
  106.9320   16.9300  100.3660 C   0  0  0  0  0  0  0  0  0  0  0  0
  106.8330   18.2290   99.8920 C   0  0  0  0  0  0  0  0  0  0  0  0
  106.8010   19.2390  100.8130 O   0  0  0  0  0  0  0  0  0  0  0  0
  106.7930   18.5030   98.4870 C   0  0  0  0  0  0  0  0  0  0  0  0
  106.8760   17.4240   97.5440 C   0  0  1  0  0  0  0  0  0  0  0  0
  106.9380   17.7140   96.0430 C   0  0  0  0  0  0  0  0  0  0  0  0
  107.3090   16.5030   95.1650 C   0  0  0  0  0  0  0  0  0  0  0  0
  106.6720   15.1910   95.6810 C   0  0  2  0  0  0  0  0  0  0  0  0
  107.1900   14.8700   97.1230 C   0  0  1  0  0  0  0  0  0  0  0  0
  106.9980   16.0650   98.0500 C   0  0  1  0  0  0  0  0  0  0  0  0
  106.5900   13.5520   97.6420 C   0  0  0  0  0  0  0  0  0  0  0  0
  106.7820   12.3640   96.6670 C   0  0  0  0  0  0  0  0  0  0  0  0
  106.3220   12.6680   95.2400 C   0  0  1  0  0  0  0  0  0  0  0  0
  107.0200   13.9910   94.7660 C   0  0  1  0  0  0  0  0  0  0  0  0
  106.7430   14.0160   93.2620 C   0  0  0  0  0  0  0  0  0  0  0  0
  106.9650   12.5440   92.8370 C   0  0  0  0  0  0  0  0  0  0  0  0
  106.8760   11.6910   94.1710 C   0  0  2  0  0  0  0  0  0  0  0  0
  106.1970   10.4170   93.9680 O   0  0  0  0  0  0  0  0  0  0  0  0
  104.7600   12.6910   95.1400 C   0  0  0  0  0  0  0  0  0  0  0  0
  2  1  1  0
  3  2  1  0
  4  3  1  0
  5  3  1  0
  6  5  1  1
  7  6  1  0
  8  7  1  0
  9  8  1  6
 10  9  1  0
 11 10  1  0
 11  1  1  1
 11  6  1  0
 10 12  1  1
 13 12  1  0
 14 13  1  0
 15 14  1  0
 15  9  1  0
 15 16  1  6
 17 16  1  0
 18 17  1  0
 18 14  1  0
 18 19  1  6
 14 20  1  1
M  END
$$$$
8AV8
     RDKit          3D

 42 43  0  0  0  0  0  0  0  0999 V2000
  -11.9340   -7.7550   14.4070 N   0  0  0  0  0  0  0  0  0  0  0  0
  -13.2700   -8.4100   14.2190 C   0  0  2  0  0  0  0  0  0  0  0  0
  -13.1070   -9.6980   13.4140 C   0  0  0  0  0  0  0  0  0  0  0  0
  -12.7760   -9.6490   12.2300 O   0  0  0  0  0  0  0  0  0  0  0  0
  -14.2540   -7.4580   13.5330 C   0  0  0  0  0  0  0  0  0  0  0  0
  -14.7040   -6.3250   14.4110 C   0  0  0  0  0  0  0  0  0  0  0  0
  -13.9860   -5.1370   14.4660 C   0  0  0  0  0  0  0  0  0  0  0  0
  -15.8460   -6.4500   15.1920 C   0  0  0  0  0  0  0  0  0  0  0  0
  -14.4040   -4.0930   15.2800 C   0  0  0  0  0  0  0  0  0  0  0  0
  -16.2710   -5.4110   16.0060 C   0  0  0  0  0  0  0  0  0  0  0  0
  -15.5490   -4.2300   16.0510 C   0  0  0  0  0  0  0  0  0  0  0  0
  -13.3600  -10.8820   14.0220 N   0  0  0  0  0  0  0  0  0  0  0  0
  -12.8210  -12.1410   13.5070 C   0  0  2  0  0  0  0  0  0  0  0  0
  -13.4680  -12.6070   12.1940 C   0  0  0  0  0  0  0  0  0  0  0  0
  -14.5900  -12.2270   11.9090 O   0  0  0  0  0  0  0  0  0  0  0  0
  -13.0880  -13.1280   14.6560 C   0  0  0  0  0  0  0  0  0  0  0  0
  -14.3200  -12.5810   15.3390 C   0  0  0  0  0  0  0  0  0  0  0  0
  -14.2080  -11.0770   15.2110 C   0  0  0  0  0  0  0  0  0  0  0  0
  -12.7370  -13.4270   11.4310 N   0  0  0  0  0  0  0  0  0  0  0  0
  -13.1820  -13.9150   10.1350 C   0  0  2  0  0  0  0  0  0  0  0  0
  -14.3090  -14.9300   10.2600 C   0  0  0  0  0  0  0  0  0  0  0  0
  -14.2090  -15.8810   11.0360 O   0  0  0  0  0  0  0  0  0  0  0  0
  -12.0100  -14.5360    9.3870 C   0  0  0  0  0  0  0  0  0  0  0  0
  -15.3750  -14.7220    9.4820 N   0  0  0  0  0  0  0  0  0  0  0  0
  -16.4750  -15.6990    9.2450 C   0  0  1  0  0  0  0  0  0  0  0  0
  -17.7400  -15.3520   10.0480 C   0  0  1  0  0  0  0  0  0  0  0  0
  -17.5640  -15.4460   11.5480 C   0  0  0  0  0  0  0  0  0  0  0  0
  -18.0960  -13.9740    9.7110 O   0  0  0  0  0  0  0  0  0  0  0  0
  -19.5450  -13.3470   10.0430 P   0  0  0  0  0  0  0  0  0  0  0  0
  -19.6880  -12.1970    9.0670 O   0  0  0  0  0  0  0  0  0  0  0  0
  -19.4970  -12.8600   11.4770 O   0  0  0  0  0  0  0  0  0  0  0  0
  -20.5420  -14.4460    9.8250 O   0  0  0  0  0  0  0  0  0  0  0  0
  -16.7830  -15.7480    7.7430 C   0  0  0  0  0  0  0  0  0  0  0  0
  -16.4120  -14.7850    7.0270 O   0  0  0  0  0  0  0  0  0  0  0  0
  -17.4180  -16.8280    7.2820 N   0  0  0  0  0  0  0  0  0  0  0  0
  -17.7250  -17.0270    5.8620 C   0  0  2  0  0  0  0  0  0  0  0  0
  -19.1630  -17.4330    5.6830 C   0  0  0  0  0  0  0  0  0  0  0  0
  -19.8140  -17.7830    6.6710 O   0  0  0  0  0  0  0  0  0  0  0  0
  -16.8400  -18.1070    5.2100 C   0  0  0  0  0  0  0  0  0  0  0  0
  -15.3780  -17.7090    5.2870 C   0  0  0  0  0  0  0  0  0  0  0  0
  -17.0830  -19.4780    5.8450 C   0  0  0  0  0  0  0  0  0  0  0  0
  -19.6810  -17.4340    4.5540 O   0  0  0  0  0  0  0  0  0  0  0  0
  2  1  1  6
  3  2  1  0
  4  3  2  0
  5  2  1  0
  6  5  1  0
  7  6  2  0
  8  6  1  0
  9  7  1  0
 10  8  2  0
 11 10  1  0
 11  9  2  0
 12  3  1  0
 13 12  1  0
 13 14  1  6
 15 14  2  0
 16 13  1  0
 17 16  1  0
 18 17  1  0
 18 12  1  0
 19 14  1  0
 20 19  1  0
 21 20  1  0
 22 21  2  0
 20 23  1  1
 24 21  1  0
 25 24  1  6
 26 25  1  0
 26 27  1  1
 28 26  1  0
 29 28  1  0
 30 29  1  0
 31 29  1  0
 32 29  1  0
 33 25  1  0
 34 33  1  0
 35 33  1  0
 36 35  1  1
 37 36  1  0
 38 37  2  0
 39 36  1  0
 40 39  1  0
 41 39  1  0
 42 37  1  0
M  END
$$$$
7RS0
     RDKit          3D

 26 29  0  0  0  0  0  0  0  0999 V2000
   -0.2810   -8.1480   17.4310 C   0  0  0  0  0  0  0  0  0  0  0  0
    1.0830  -10.1220   15.5430 C   0  0  0  0  0  0  0  0  0  0  0  0
   -1.2240   -9.7200   20.7290 C   0  0  0  0  0  0  0  0  0  0  0  0
   -3.1480   -9.3830   22.4930 C   0  0  0  0  0  0  0  0  0  0  0  0
    1.5840   -8.6370   19.2570 C   0  0  1  0  0  0  0  0  0  0  0  0
    2.7320   -7.7210   19.3170 C   0  0  2  0  0  0  0  0  0  0  0  0
    3.5300   -7.8990   20.4220 C   0  0  2  0  0  0  0  0  0  0  0  0
    2.9060   -7.6280   21.4530 C   0  0  0  0  0  0  0  0  0  0  0  0
    0.6940   -7.9020   20.5710 C   0  0  2  0  0  0  0  0  0  0  0  0
    1.7280   -7.0260   21.1620 C   0  0  2  0  0  0  0  0  0  0  0  0
    2.1420   -6.4290   19.8070 O   0  0  0  0  0  0  0  0  0  0  0  0
   -0.5770   -8.4170   21.2060 C   0  0  0  0  0  0  0  0  0  0  0  0
    0.9750   -8.8800   17.8780 C   0  0  0  0  0  0  0  0  0  0  0  0
   -0.8550   -8.4250   16.0370 C   0  0  0  0  0  0  0  0  0  0  0  0
   -0.1850   -9.4130   15.0900 C   0  0  0  0  0  0  0  0  0  0  0  0
    1.6610   -9.8650   16.9360 C   0  0  0  0  0  0  0  0  0  0  0  0
   -2.5220  -10.2060   21.3720 C   0  0  0  0  0  0  0  0  0  0  0  0
   -2.4900   -8.0870   22.9550 C   0  0  0  0  0  0  0  0  0  0  0  0
   -1.2080   -7.5960   22.3170 C   0  0  0  0  0  0  0  0  0  0  0  0
   -4.3300   -9.7890   23.1190 O   0  0  0  0  0  0  0  0  0  0  0  0
   -0.7190   -9.6620   13.7980 O   0  0  0  0  0  0  0  0  0  0  0  0
    6.5730   -7.0460   20.7080 N   0  0  0  0  0  0  0  0  0  0  0  0
   -2.0990   -9.9110   13.7070 C   0  0  0  0  0  0  0  0  0  0  0  0
    5.1000   -6.5230   20.0350 S   0  0  1  0  0  0  0  0  0  0  0  0
    5.2520   -6.3070   18.5930 O   0  0  0  0  0  0  0  0  0  0  0  0
    4.7190   -5.1810   20.4850 O   0  0  0  0  0  0  0  0  0  0  0  0
  6  5  1  0
  7  6  1  0
  7  8  1  1
  9  5  1  0
 10  9  1  0
 10  8  1  6
 11 10  1  0
  6 11  1  1
  9 12  1  1
 12  3  1  0
  5 13  1  6
 13  1  1  0
 14  1  1  0
 15 14  1  0
 15  2  1  0
 16  2  1  0
 16 13  1  0
 17  3  1  0
 17  4  1  0
 18  4  1  0
 19 12  1  0
 19 18  1  0
 20  4  1  0
 21 15  1  0
 23 21  1  0
 24  7  1  0
 24 22  1  1
 25 24  1  0
 26 24  1  0
M  END
$$$$
4IWC
     RDKit          3D

 79 79  0  0  0  0  0  0  0  0999 V2000
    2.6180  -18.7410   -9.6010 N   0  0  0  0  0  0  0  0  0  0  0  0
    2.5180  -17.2880   -9.6400 C   0  0  2  0  0  0  0  0  0  0  0  0
    3.5680  -16.6910  -10.5660 C   0  0  0  0  0  0  0  0  0  0  0  0
    4.6260  -17.2810  -10.7840 O   0  0  0  0  0  0  0  0  0  0  0  0
    2.6470  -16.6960   -8.2350 C   0  0  0  0  0  0  0  0  0  0  0  0
    1.4040  -16.8720   -7.3790 C   0  0  0  0  0  0  0  0  0  0  0  0
    1.5570  -16.2040   -6.0240 C   0  0  0  0  0  0  0  0  0  0  0  0
    2.7120  -16.8060   -5.2480 C   0  0  0  0  0  0  0  0  0  0  0  0
    2.5820  -16.5540   -3.7880 N   0  0  0  0  0  0  0  0  0  0  0  0
    3.2640  -15.5190  -11.1120 N   0  0  0  0  0  0  0  0  0  0  0  0
    4.1790  -14.8310  -12.0120 C   0  0  2  0  0  0  0  0  0  0  0  0
    5.5170  -14.5820  -11.3260 C   0  0  0  0  0  0  0  0  0  0  0  0
    6.5750  -14.7750  -11.9230 O   0  0  0  0  0  0  0  0  0  0  0  0
    3.5910  -13.4900  -12.4830 C   0  0  2  0  0  0  0  0  0  0  0  0
    2.1920  -13.7010  -13.0640 C   0  0  0  0  0  0  0  0  0  0  0  0
    4.5070  -12.8330  -13.5050 C   0  0  0  0  0  0  0  0  0  0  0  0
    1.4810  -12.4180  -13.4080 C   0  0  0  0  0  0  0  0  0  0  0  0
    5.4620  -14.1590  -10.0670 N   0  0  0  0  0  0  0  0  0  0  0  0
    6.6710  -13.8920   -9.2980 C   0  0  2  0  0  0  0  0  0  0  0  0
    7.5630  -15.1270   -9.2380 C   0  0  0  0  0  0  0  0  0  0  0  0
    8.7800  -15.0320   -9.4060 O   0  0  0  0  0  0  0  0  0  0  0  0
    6.3190  -13.4140   -7.8870 C   0  0  0  0  0  0  0  0  0  0  0  0
    7.4620  -12.7670   -7.1010 C   0  0  0  0  0  0  0  0  0  0  0  0
    8.1900  -11.7480   -7.9620 C   0  0  0  0  0  0  0  0  0  0  0  0
    6.9440  -12.1230   -5.8230 C   0  0  0  0  0  0  0  0  0  0  0  0
    6.9530  -16.2850   -8.9980 N   0  0  0  0  0  0  0  0  0  0  0  0
    7.6760  -17.5500   -9.0390 C   0  0  2  0  0  0  0  0  0  0  0  0
    8.4630  -17.6540  -10.3410 C   0  0  0  0  0  0  0  0  0  0  0  0
    9.6700  -17.8990  -10.3330 O   0  0  0  0  0  0  0  0  0  0  0  0
    6.7100  -18.7350   -8.9280 C   0  0  0  0  0  0  0  0  0  0  0  0
    6.2690  -19.0360   -7.5280 C   0  0  0  0  0  0  0  0  0  0  0  0
    5.0550  -18.6270   -7.0230 N   0  0  0  0  0  0  0  0  0  0  0  0
    6.8780  -19.7220   -6.5310 C   0  0  0  0  0  0  0  0  0  0  0  0
    4.9360  -19.0420   -5.7740 C   0  0  0  0  0  0  0  0  0  0  0  0
    6.0300  -19.7080   -5.4510 N   0  0  0  0  0  0  0  0  0  0  0  0
    7.7700  -17.4520  -11.4590 N   0  0  0  0  0  0  0  0  0  0  0  0
    8.3760  -17.5840  -12.7810 C   0  0  2  0  0  0  0  0  0  0  0  0
    9.5380  -16.6190  -13.0060 C   0  0  0  0  0  0  0  0  0  0  0  0
   10.5750  -17.0040  -13.5470 O   0  0  0  0  0  0  0  0  0  0  0  0
    7.3270  -17.4050  -13.8830 C   0  0  0  0  0  0  0  0  0  0  0  0
    7.9200  -17.3750  -15.2850 C   0  0  0  0  0  0  0  0  0  0  0  0
    6.8520  -17.4030  -16.3690 C   0  0  0  0  0  0  0  0  0  0  0  0
    6.0190  -16.2030  -16.3760 N   0  0  0  0  0  0  0  0  0  0  0  0
    6.3440  -15.0680  -16.9880 C   0  0  0  0  0  0  0  0  0  0  0  0
    7.4960  -14.9660  -17.6360 N   0  0  0  0  0  0  0  0  0  0  0  0
    5.5190  -14.0300  -16.9440 N   0  0  0  0  0  0  0  0  0  0  0  0
    9.3610  -15.3670  -12.5990 N   0  0  0  0  0  0  0  0  0  0  0  0
   10.4050  -14.3630  -12.7720 C   0  0  2  0  0  0  0  0  0  0  0  0
   11.6280  -14.6880  -11.9170 C   0  0  0  0  0  0  0  0  0  0  0  0
   12.7650  -14.4860  -12.3420 O   0  0  0  0  0  0  0  0  0  0  0  0
    9.8740  -12.9650  -12.4500 C   0  0  0  0  0  0  0  0  0  0  0  0
    8.7320  -12.4770  -13.3450 C   0  0  0  0  0  0  0  0  0  0  0  0
    8.3240  -11.0560  -12.9920 C   0  0  0  0  0  0  0  0  0  0  0  0
    9.1360  -12.5660  -14.8070 C   0  0  0  0  0  0  0  0  0  0  0  0
   11.3840  -15.1990  -10.7140 N   0  0  0  0  0  0  0  0  0  0  0  0
   12.4600  -15.5820   -9.8060 C   0  0  2  0  0  0  0  0  0  0  0  0
   13.2450  -16.7770  -10.3520 C   0  0  0  0  0  0  0  0  0  0  0  0
   14.4630  -16.8560  -10.1880 O   0  0  0  0  0  0  0  0  0  0  0  0
   11.8920  -15.8990   -8.4180 C   0  0  0  0  0  0  0  0  0  0  0  0
   12.3590  -15.0720   -7.2130 C   0  0  0  0  0  0  0  0  0  0  0  0
   12.8160  -13.6810   -7.6150 C   0  0  0  0  0  0  0  0  0  0  0  0
   11.2570  -14.9970   -6.1620 C   0  0  0  0  0  0  0  0  0  0  0  0
   12.5440  -17.7010  -11.0050 N   0  0  0  0  0  0  0  0  0  0  0  0
   13.1830  -18.8740  -11.6000 C   0  0  2  0  0  0  0  0  0  0  0  0
   13.9820  -18.5070  -12.8470 C   0  0  0  0  0  0  0  0  0  0  0  0
   15.0920  -19.0000  -13.0530 O   0  0  0  0  0  0  0  0  0  0  0  0
   12.1430  -19.9400  -11.9560 C   0  0  0  0  0  0  0  0  0  0  0  0
   11.4350  -20.5580  -10.7620 C   0  0  0  0  0  0  0  0  0  0  0  0
   11.5000  -22.0740  -10.7690 C   0  0  0  0  0  0  0  0  0  0  0  0
   10.4730  -22.7520  -10.7120 O   0  0  0  0  0  0  0  0  0  0  0  0
   12.7120  -22.6140  -10.8330 N   0  0  0  0  0  0  0  0  0  0  0  0
   13.4070  -17.6470  -13.6800 N   0  0  0  0  0  0  0  0  0  0  0  0
   14.0510  -17.2300  -14.9190 C   0  0  2  0  0  0  0  0  0  0  0  0
   14.2020  -15.7150  -14.9830 C   0  0  0  0  0  0  0  0  0  0  0  0
   15.3160  -15.1920  -14.9600 O   0  0  0  0  0  0  0  0  0  0  0  0
   13.2590  -17.7300  -16.1290 C   0  0  0  0  0  0  0  0  0  0  0  0
   13.3130  -19.2370  -16.2780 C   0  0  0  0  0  0  0  0  0  0  0  0
   12.5250  -19.9310  -15.6020 O   0  0  0  0  0  0  0  0  0  0  0  0
   14.1420  -19.7260  -17.0730 O   0  0  0  0  0  0  0  0  0  0  0  0
  2  1  1  1
  3  2  1  0
  4  3  2  0
  5  2  1  0
  6  5  1  0
  7  6  1  0
  8  7  1  0
  9  8  1  0
 10  3  1  0
 11 10  1  1
 12 11  1  0
 13 12  2  0
 14 11  1  0
 15 14  1  0
 14 16  1  6
 17 15  1  0
 18 12  1  0
 19 18  1  0
 20 19  1  0
 21 20  2  0
 19 22  1  1
 23 22  1  0
 24 23  1  0
 25 23  1  0
 26 20  1  0
 27 26  1  0
 28 27  1  0
 29 28  2  0
 27 30  1  6
 31 30  1  0
 32 31  1  0
 33 31  2  0
 34 32  2  0
 35 34  1  0
 35 33  1  0
 36 28  1  0
 37 36  1  0
 38 37  1  0
 39 38  2  0
 37 40  1  6
 41 40  1  0
 42 41  1  0
 43 42  1  0
 44 43  1  0
 45 44  1  0
 46 44  2  0
 47 38  1  0
 48 47  1  0
 49 48  1  0
 50 49  2  0
 48 51  1  1
 52 51  1  0
 53 52  1  0
 54 52  1  0
 55 49  1  0
 56 55  1  0
 57 56  1  0
 58 57  2  0
 56 59  1  1
 60 59  1  0
 61 60  1  0
 62 60  1  0
 63 57  1  0
 64 63  1  0
 65 64  1  0
 66 65  2  0
 64 67  1  6
 68 67  1  0
 69 68  1  0
 70 69  2  0
 71 69  1  0
 72 65  1  0
 73 72  1  0
 74 73  1  0
 75 74  2  0
 73 76  1  6
 77 76  1  0
 78 77  2  0
 79 77  1  0
M  END
$$$$
8AXE
     RDKit          3D

 42 43  0  0  0  0  0  0  0  0999 V2000
  -14.2120   -7.9570   14.3000 N   0  0  0  0  0  0  0  0  0  0  0  0
  -14.8470   -9.0750   13.5390 C   0  0  2  0  0  0  0  0  0  0  0  0
  -13.8800  -10.2120   13.1910 C   0  0  0  0  0  0  0  0  0  0  0  0
  -13.1370  -10.1130   12.2160 O   0  0  0  0  0  0  0  0  0  0  0  0
  -15.5500   -8.5300   12.2760 C   0  0  0  0  0  0  0  0  0  0  0  0
  -14.7000   -7.6070   11.4260 C   0  0  0  0  0  0  0  0  0  0  0  0
  -14.5850   -6.2530   11.7380 C   0  0  0  0  0  0  0  0  0  0  0  0
  -14.0400   -8.0830   10.2940 C   0  0  0  0  0  0  0  0  0  0  0  0
  -13.8120   -5.4060   10.9570 C   0  0  0  0  0  0  0  0  0  0  0  0
  -13.2670   -7.2390    9.5110 C   0  0  0  0  0  0  0  0  0  0  0  0
  -13.1530   -5.8990    9.8420 C   0  0  0  0  0  0  0  0  0  0  0  0
  -13.8560  -11.3440   13.9460 N   0  0  0  0  0  0  0  0  0  0  0  0
  -13.0370  -12.4990   13.5590 C   0  0  2  0  0  0  0  0  0  0  0  0
  -13.5090  -13.0330   12.1980 C   0  0  0  0  0  0  0  0  0  0  0  0
  -14.5640  -12.6450   11.7610 O   0  0  0  0  0  0  0  0  0  0  0  0
  -13.2340  -13.5250   14.6890 C   0  0  0  0  0  0  0  0  0  0  0  0
  -14.5190  -13.0930   15.3720 C   0  0  0  0  0  0  0  0  0  0  0  0
  -14.6140  -11.5900   15.1840 C   0  0  0  0  0  0  0  0  0  0  0  0
  -12.7210  -13.8960   11.5490 N   0  0  0  0  0  0  0  0  0  0  0  0
  -13.0330  -14.3290   10.2110 C   0  0  2  0  0  0  0  0  0  0  0  0
  -14.1570  -15.3460   10.2630 C   0  0  0  0  0  0  0  0  0  0  0  0
  -14.1050  -16.2900   11.0360 O   0  0  0  0  0  0  0  0  0  0  0  0
  -11.8140  -14.9300    9.5270 C   0  0  0  0  0  0  0  0  0  0  0  0
  -15.1810  -15.1250    9.4360 N   0  0  0  0  0  0  0  0  0  0  0  0
  -16.2730  -16.0860    9.1520 C   0  0  1  0  0  0  0  0  0  0  0  0
  -17.5650  -15.7340    9.9010 C   0  0  1  0  0  0  0  0  0  0  0  0
  -17.4450  -15.8620   11.4040 C   0  0  0  0  0  0  0  0  0  0  0  0
  -17.8730  -14.3450    9.5670 O   0  0  0  0  0  0  0  0  0  0  0  0
  -19.3300  -13.7360    9.8720 P   0  0  0  0  0  0  0  0  0  0  0  0
  -19.3890  -12.5240    8.9700 O   0  0  0  0  0  0  0  0  0  0  0  0
  -19.3080  -13.3640   11.3480 O   0  0  0  0  0  0  0  0  0  0  0  0
  -20.4040  -14.7680    9.5450 O   0  0  0  0  0  0  0  0  0  0  0  0
  -16.5060  -16.0900    7.6430 C   0  0  0  0  0  0  0  0  0  0  0  0
  -16.0410  -15.1300    6.9740 O   0  0  0  0  0  0  0  0  0  0  0  0
  -17.1600  -17.1260    7.1270 N   0  0  0  0  0  0  0  0  0  0  0  0
  -17.4430  -17.2180    5.6840 C   0  0  2  0  0  0  0  0  0  0  0  0
  -18.8650  -17.6100    5.4300 C   0  0  0  0  0  0  0  0  0  0  0  0
  -19.5930  -18.0210    6.3360 O   0  0  0  0  0  0  0  0  0  0  0  0
  -16.5320  -18.2280    4.9450 C   0  0  0  0  0  0  0  0  0  0  0  0
  -15.0920  -17.8070    5.0840 C   0  0  0  0  0  0  0  0  0  0  0  0
  -16.7650  -19.6410    5.4540 C   0  0  0  0  0  0  0  0  0  0  0  0
  -19.2930  -17.5350    4.2760 O   0  0  0  0  0  0  0  0  0  0  0  0
  2  1  1  6
  3  2  1  0
  4  3  2  0
  5  2  1  0
  6  5  1  0
  7  6  2  0
  8  6  1  0
  9  7  1  0
 10  8  2  0
 11 10  1  0
 11  9  2  0
 12  3  1  0
 13 12  1  0
 13 14  1  6
 15 14  2  0
 16 13  1  0
 17 16  1  0
 18 17  1  0
 18 12  1  0
 19 14  1  0
 20 19  1  0
 21 20  1  0
 22 21  2  0
 20 23  1  1
 24 21  1  0
 25 24  1  6
 26 25  1  0
 26 27  1  1
 28 26  1  0
 29 28  1  0
 30 29  1  0
 31 29  1  0
 32 29  1  0
 33 25  1  0
 34 33  1  0
 35 33  1  0
 36 35  1  1
 37 36  1  0
 38 37  2  0
 39 36  1  0
 40 39  1  0
 41 39  1  0
 42 37  1  0
M  END
$$$$
7YMK
     RDKit          3D

 67 67  0  0  0  0  0  0  0  0999 V2000
   20.8700   11.8290   -2.0070 N   0  0  0  0  0  0  0  0  0  0  0  0
   19.9320   12.4530   -1.0390 C   0  0  2  0  0  0  0  0  0  0  0  0
   18.8090   13.1550   -1.8090 C   0  0  0  0  0  0  0  0  0  0  0  0
   19.0590   14.2140   -2.4240 O   0  0  0  0  0  0  0  0  0  0  0  0
   20.6600   13.4000   -0.1240 C   0  0  0  0  0  0  0  0  0  0  0  0
   17.6170   12.5630   -1.7680 N   0  0  0  0  0  0  0  0  0  0  0  0
   16.3990   12.9930   -2.5160 C   0  0  2  0  0  0  0  0  0  0  0  0
   16.0110   14.4210   -2.1100 C   0  0  0  0  0  0  0  0  0  0  0  0
   15.5720   15.2150   -2.9610 O   0  0  0  0  0  0  0  0  0  0  0  0
   15.2770   11.9700   -2.2430 C   0  0  2  0  0  0  0  0  0  0  0  0
   15.6710   10.5930   -2.7840 C   0  0  0  0  0  0  0  0  0  0  0  0
   13.9410   12.4470   -2.7880 C   0  0  0  0  0  0  0  0  0  0  0  0
   14.6170    9.5320   -2.6060 C   0  0  0  0  0  0  0  0  0  0  0  0
   16.1440   14.7330   -0.8320 N   0  0  0  0  0  0  0  0  0  0  0  0
   15.5840   15.9770   -0.2670 C   0  0  2  0  0  0  0  0  0  0  0  0
   16.3240   17.1760   -0.8630 C   0  0  0  0  0  0  0  0  0  0  0  0
   15.6720   18.1230   -1.2450 O   0  0  0  0  0  0  0  0  0  0  0  0
   15.6870   15.8880    1.2550 C   0  0  0  0  0  0  0  0  0  0  0  0
   14.8640   16.8960    2.0350 C   0  0  0  0  0  0  0  0  0  0  0  0
   13.4180   16.9130    1.5660 C   0  0  0  0  0  0  0  0  0  0  0  0
   14.9580   16.5950    3.5180 C   0  0  0  0  0  0  0  0  0  0  0  0
   17.6360   17.0870   -1.0340 N   0  0  0  0  0  0  0  0  0  0  0  0
   18.4660   18.0940   -1.7540 C   0  0  2  0  0  0  0  0  0  0  0  0
   17.9350   18.3340   -3.1730 C   0  0  0  0  0  0  0  0  0  0  0  0
   17.7540   19.5350   -3.5620 O   0  0  0  0  0  0  0  0  0  0  0  0
   19.9080   17.6260   -1.8170 C   0  0  0  0  0  0  0  0  0  0  0  0
   20.6940   17.8550   -0.5720 C   0  0  0  0  0  0  0  0  0  0  0  0
   20.8150   16.8920    0.4080 N   0  0  0  0  0  0  0  0  0  0  0  0
   21.4630   18.8960   -0.1970 C   0  0  0  0  0  0  0  0  0  0  0  0
   21.6270   17.3340    1.3470 C   0  0  0  0  0  0  0  0  0  0  0  0
   22.0690   18.5510    0.9790 N   0  0  0  0  0  0  0  0  0  0  0  0
   17.6230   17.2570   -3.8940 N   0  0  0  0  0  0  0  0  0  0  0  0
   17.1510   17.3790   -5.2940 C   0  0  2  0  0  0  0  0  0  0  0  0
   15.7420   17.9750   -5.2810 C   0  0  0  0  0  0  0  0  0  0  0  0
   15.4840   18.8570   -6.1370 O   0  0  0  0  0  0  0  0  0  0  0  0
   17.2050   16.0250   -6.0060 C   0  0  0  0  0  0  0  0  0  0  0  0
   18.6260   15.5240   -6.2010 C   0  0  0  0  0  0  0  0  0  0  0  0
   18.6570   14.0390   -6.5160 C   0  0  0  0  0  0  0  0  0  0  0  0
   19.9840   13.5810   -6.9230 N   0  0  0  0  0  0  0  0  0  0  0  0
   21.0180   13.4000   -6.1080 C   0  0  0  0  0  0  0  0  0  0  0  0
   20.9070   13.6410   -4.8120 N   0  0  0  0  0  0  0  0  0  0  0  0
   22.1690   12.9810   -6.5950 N   0  0  0  0  0  0  0  0  0  0  0  0
   14.8780   17.5220   -4.3550 N   0  0  0  0  0  0  0  0  0  0  0  0
   13.4620   17.9640   -4.3020 C   0  0  2  0  0  0  0  0  0  0  0  0
   13.3890   19.4160   -3.8290 C   0  0  0  0  0  0  0  0  0  0  0  0
   12.4250   20.0610   -4.2230 O   0  0  0  0  0  0  0  0  0  0  0  0
   12.6410   17.0330   -3.4150 C   0  0  0  0  0  0  0  0  0  0  0  0
   12.3440   15.6550   -4.0020 C   0  0  0  0  0  0  0  0  0  0  0  0
   11.3290   14.9120   -3.1680 C   0  0  0  0  0  0  0  0  0  0  0  0
   11.8470   15.7590   -5.4420 C   0  0  0  0  0  0  0  0  0  0  0  0
   14.3950   19.9250   -3.1050 N   0  0  0  0  0  0  0  0  0  0  0  0
   14.3550   21.2800   -2.4770 C   0  0  2  0  0  0  0  0  0  0  0  0
   14.9540   22.3640   -3.3800 C   0  0  0  0  0  0  0  0  0  0  0  0
   14.4880   23.5310   -3.3050 O   0  0  0  0  0  0  0  0  0  0  0  0
   15.0940   21.2570   -1.1350 C   0  0  0  0  0  0  0  0  0  0  0  0
   14.1980   21.0350    0.0800 C   0  0  0  0  0  0  0  0  0  0  0  0
   15.0180   20.8320    1.3470 C   0  0  0  0  0  0  0  0  0  0  0  0
   13.2180   22.1900    0.2380 C   0  0  0  0  0  0  0  0  0  0  0  0
   15.9840   22.0300   -4.1560 N   0  0  0  0  0  0  0  0  0  0  0  0
   16.6340   22.9900   -5.0960 C   0  0  2  0  0  0  0  0  0  0  0  0
   15.5670   23.6510   -5.9940 C   0  0  0  0  0  0  0  0  0  0  0  0
   14.5310   23.0170   -6.2810 O   0  0  0  0  0  0  0  0  0  0  0  0
   17.7020   22.2680   -5.9160 C   0  0  0  0  0  0  0  0  0  0  0  0
   18.5550   23.2340   -6.7200 C   0  0  0  0  0  0  0  0  0  0  0  0
   19.4380   22.4990   -7.6970 C   0  0  0  0  0  0  0  0  0  0  0  0
   19.1280   21.3690   -8.1270 O   0  0  0  0  0  0  0  0  0  0  0  0
   20.5620   23.1340   -8.0110 N   0  0  0  0  0  0  0  0  0  0  0  0
  2  1  1  0
  3  2  1  0
  4  3  2  0
  2  5  1  6
  6  3  1  0
  7  6  1  1
  8  7  1  0
  9  8  2  0
 10  7  1  0
 11 10  1  0
 10 12  1  6
 13 11  1  0
 14  8  1  0
 15 14  1  0
 16 15  1  0
 17 16  2  0
 15 18  1  1
 19 18  1  0
 20 19  1  0
 21 19  1  0
 22 16  1  0
 23 22  1  0
 24 23  1  0
 25 24  2  0
 23 26  1  6
 27 26  1  0
 28 27  1  0
 29 27  2  0
 30 28  2  0
 31 30  1  0
 31 29  1  0
 32 24  1  0
 33 32  1  0
 34 33  1  0
 35 34  2  0
 33 36  1  1
 37 36  1  0
 38 37  1  0
 39 38  1  0
 40 39  1  0
 41 40  1  0
 42 40  2  0
 43 34  1  0
 44 43  1  0
 45 44  1  0
 46 45  2  0
 44 47  1  1
 48 47  1  0
 49 48  1  0
 50 48  1  0
 51 45  1  0
 52 51  1  0
 53 52  1  0
 54 53  2  0
 52 55  1  1
 56 55  1  0
 57 56  1  0
 58 56  1  0
 59 53  1  0
 60 59  1  0
 61 60  1  0
 62 61  2  0
 60 63  1  6
 64 63  1  0
 65 64  1  0
 66 65  2  0
 67 65  1  0
M  END
$$$$
4ZNH
     RDKit          3D

 79 79  0  0  0  0  0  0  0  0999 V2000
  -10.9000   18.2330   21.6150 N   0  0  0  0  0  0  0  0  0  0  0  0
   -9.8450   17.2330   21.5070 C   0  0  2  0  0  0  0  0  0  0  0  0
   -9.5130   16.6650   22.8830 C   0  0  0  0  0  0  0  0  0  0  0  0
   -8.8820   17.3330   23.7030 O   0  0  0  0  0  0  0  0  0  0  0  0
   -8.5970   17.8380   20.8660 C   0  0  0  0  0  0  0  0  0  0  0  0
   -7.7090   16.8270   20.1640 C   0  0  0  0  0  0  0  0  0  0  0  0
   -8.4380   16.2010   18.9890 C   0  0  0  0  0  0  0  0  0  0  0  0
   -7.4980   15.3860   18.1220 C   0  0  0  0  0  0  0  0  0  0  0  0
   -6.3990   16.2220   17.5610 N   0  0  0  0  0  0  0  0  0  0  0  0
   -9.9400   15.4300   23.1290 N   0  0  0  0  0  0  0  0  0  0  0  0
   -9.7950   14.8150   24.4430 C   0  0  2  0  0  0  0  0  0  0  0  0
   -8.3360   14.5690   24.8150 C   0  0  0  0  0  0  0  0  0  0  0  0
   -7.9300   14.8280   25.9480 O   0  0  0  0  0  0  0  0  0  0  0  0
  -10.5670   13.4890   24.5190 C   0  0  2  0  0  0  0  0  0  0  0  0
  -12.0550   13.7400   24.2830 C   0  0  0  0  0  0  0  0  0  0  0  0
  -10.3500   12.8130   25.8670 C   0  0  0  0  0  0  0  0  0  0  0  0
  -12.9240   12.5470   24.5720 C   0  0  0  0  0  0  0  0  0  0  0  0
   -7.5560   14.0740   23.8600 N   0  0  0  0  0  0  0  0  0  0  0  0
   -6.1300   13.8480   24.0730 C   0  0  2  0  0  0  0  0  0  0  0  0
   -5.4370   15.1430   24.4730 C   0  0  0  0  0  0  0  0  0  0  0  0
   -4.6000   15.1600   25.3750 O   0  0  0  0  0  0  0  0  0  0  0  0
   -5.4820   13.2710   22.8140 C   0  0  0  0  0  0  0  0  0  0  0  0
   -3.9750   13.0350   22.8680 C   0  0  0  0  0  0  0  0  0  0  0  0
   -3.6240   12.1300   24.0360 C   0  0  0  0  0  0  0  0  0  0  0  0
   -3.4880   12.4390   21.5580 C   0  0  0  0  0  0  0  0  0  0  0  0
   -5.8050   16.2230   23.7920 N   0  0  0  0  0  0  0  0  0  0  0  0
   -5.2900   17.5560   24.0840 C   0  0  2  0  0  0  0  0  0  0  0  0
   -5.5500   17.9340   25.5440 C   0  0  0  0  0  0  0  0  0  0  0  0
   -4.6530   18.4020   26.2460 O   0  0  0  0  0  0  0  0  0  0  0  0
   -5.9310   18.5740   23.1370 C   0  0  0  0  0  0  0  0  0  0  0  0
   -5.2750   19.9190   23.1490 C   0  0  0  0  0  0  0  0  0  0  0  0
   -5.6480   20.9210   24.0180 N   0  0  0  0  0  0  0  0  0  0  0  0
   -4.2830   20.4330   22.3850 C   0  0  0  0  0  0  0  0  0  0  0  0
   -4.9070   21.9920   23.7950 C   0  0  0  0  0  0  0  0  0  0  0  0
   -4.0700   21.7220   22.8090 N   0  0  0  0  0  0  0  0  0  0  0  0
   -6.7800   17.7060   25.9950 N   0  0  0  0  0  0  0  0  0  0  0  0
   -7.1730   18.0020   27.3690 C   0  0  2  0  0  0  0  0  0  0  0  0
   -6.3890   17.1680   28.3780 C   0  0  0  0  0  0  0  0  0  0  0  0
   -5.9170   17.6840   29.3890 O   0  0  0  0  0  0  0  0  0  0  0  0
   -8.6760   17.7650   27.5530 C   0  0  0  0  0  0  0  0  0  0  0  0
   -9.1820   17.9310   28.9840 C   0  0  0  0  0  0  0  0  0  0  0  0
   -9.1840   19.3910   29.4190 C   0  0  0  0  0  0  0  0  0  0  0  0
   -9.7490   19.5690   30.7560 N   0  0  0  0  0  0  0  0  0  0  0  0
  -11.0290   19.8360   30.9990 C   0  0  0  0  0  0  0  0  0  0  0  0
  -11.8850   19.9590   29.9940 N   0  0  0  0  0  0  0  0  0  0  0  0
  -11.4560   19.9820   32.2470 N   0  0  0  0  0  0  0  0  0  0  0  0
   -6.2510   15.8760   28.0950 N   0  0  0  0  0  0  0  0  0  0  0  0
   -5.5850   14.9550   29.0100 C   0  0  2  0  0  0  0  0  0  0  0  0
   -4.1020   15.2760   29.1730 C   0  0  0  0  0  0  0  0  0  0  0  0
   -3.5230   15.0510   30.2360 O   0  0  0  0  0  0  0  0  0  0  0  0
   -5.7600   13.5130   28.5270 C   0  0  0  0  0  0  0  0  0  0  0  0
   -7.2000   13.0020   28.5480 C   0  0  0  0  0  0  0  0  0  0  0  0
   -7.2910   11.6050   27.9590 C   0  0  0  0  0  0  0  0  0  0  0  0
   -7.7490   13.0250   29.9650 C   0  0  0  0  0  0  0  0  0  0  0  0
   -3.4920   15.8080   28.1200 N   0  0  0  0  0  0  0  0  0  0  0  0
   -2.0740   16.1540   28.1570 C   0  0  2  0  0  0  0  0  0  0  0  0
   -1.8150   17.3660   29.0490 C   0  0  0  0  0  0  0  0  0  0  0  0
   -0.6760   17.6410   29.4260 O   0  0  0  0  0  0  0  0  0  0  0  0
   -1.5540   16.4110   26.7430 C   0  0  0  0  0  0  0  0  0  0  0  0
   -1.2710   15.1540   25.9170 C   0  0  0  0  0  0  0  0  0  0  0  0
   -1.1300   15.4940   24.4480 C   0  0  0  0  0  0  0  0  0  0  0  0
   -0.0150   14.4680   26.4220 C   0  0  0  0  0  0  0  0  0  0  0  0
   -2.8800   18.0820   29.3910 N   0  0  0  0  0  0  0  0  0  0  0  0
   -2.7720   19.2370   30.2740 C   0  0  2  0  0  0  0  0  0  0  0  0
   -3.0260   18.8580   31.7320 C   0  0  0  0  0  0  0  0  0  0  0  0
   -2.2860   19.2690   32.6260 O   0  0  0  0  0  0  0  0  0  0  0  0
   -3.7470   20.3290   29.8360 C   0  0  0  0  0  0  0  0  0  0  0  0
   -3.4410   20.9100   28.4660 C   0  0  0  0  0  0  0  0  0  0  0  0
   -4.5010   21.8870   28.0010 C   0  0  0  0  0  0  0  0  0  0  0  0
   -5.6970   21.6350   28.1410 O   0  0  0  0  0  0  0  0  0  0  0  0
   -4.0660   23.0130   27.4510 N   0  0  0  0  0  0  0  0  0  0  0  0
   -4.0730   18.0720   31.9630 N   0  0  0  0  0  0  0  0  0  0  0  0
   -4.4390   17.6560   33.3140 C   0  0  2  0  0  0  0  0  0  0  0  0
   -3.3560   16.7850   33.9470 C   0  0  0  0  0  0  0  0  0  0  0  0
   -3.5530   15.5890   34.1620 O   0  0  0  0  0  0  0  0  0  0  0  0
   -5.7730   16.9050   33.3010 C   0  0  0  0  0  0  0  0  0  0  0  0
   -6.9130   17.7480   32.7590 C   0  0  0  0  0  0  0  0  0  0  0  0
   -6.7550   18.9840   32.6790 O   0  0  0  0  0  0  0  0  0  0  0  0
   -7.9680   17.1720   32.4180 O   0  0  0  0  0  0  0  0  0  0  0  0
  2  1  1  1
  3  2  1  0
  4  3  2  0
  5  2  1  0
  6  5  1  0
  7  6  1  0
  8  7  1  0
  9  8  1  0
 10  3  1  0
 11 10  1  6
 12 11  1  0
 13 12  2  0
 14 11  1  0
 15 14  1  0
 14 16  1  1
 17 15  1  0
 18 12  1  0
 19 18  1  0
 20 19  1  0
 21 20  2  0
 19 22  1  6
 23 22  1  0
 24 23  1  0
 25 23  1  0
 26 20  1  0
 27 26  1  0
 28 27  1  0
 29 28  2  0
 27 30  1  6
 31 30  1  0
 32 31  1  0
 33 31  2  0
 34 32  2  0
 35 33  1  0
 35 34  1  0
 36 28  1  0
 37 36  1  0
 38 37  1  0
 39 38  2  0
 37 40  1  6
 41 40  1  0
 42 41  1  0
 43 42  1  0
 44 43  1  0
 45 44  1  0
 46 44  2  0
 47 38  1  0
 48 47  1  0
 49 48  1  0
 50 49  2  0
 48 51  1  6
 52 51  1  0
 53 52  1  0
 54 52  1  0
 55 49  1  0
 56 55  1  0
 57 56  1  0
 58 57  2  0
 56 59  1  6
 60 59  1  0
 61 60  1  0
 62 60  1  0
 63 57  1  0
 64 63  1  0
 65 64  1  0
 66 65  2  0
 64 67  1  6
 68 67  1  0
 69 68  1  0
 70 69  2  0
 71 69  1  0
 72 65  1  0
 73 72  1  0
 74 73  1  0
 75 74  2  0
 73 76  1  6
 77 76  1  0
 78 77  2  0
 79 77  1  0
M  END
$$$$
4TUZ
     RDKit          3D

 76 76  0  0  0  0  0  0  0  0999 V2000
   28.5350   26.3060    6.0920 N   0  0  0  0  0  0  0  0  0  0  0  0
   28.2480   24.8760    6.1590 C   0  0  2  0  0  0  0  0  0  0  0  0
   27.8390   24.3280    4.7930 C   0  0  0  0  0  0  0  0  0  0  0  0
   27.1440   24.9970    4.0280 O   0  0  0  0  0  0  0  0  0  0  0  0
   27.1560   24.5960    7.1930 C   0  0  0  0  0  0  0  0  0  0  0  0
   28.2670   23.1040    4.4960 N   0  0  0  0  0  0  0  0  0  0  0  0
   28.0420   22.5170    3.1770 C   0  0  2  0  0  0  0  0  0  0  0  0
   26.5740   22.3910    2.7910 C   0  0  0  0  0  0  0  0  0  0  0  0
   26.1950   22.7200    1.6680 O   0  0  0  0  0  0  0  0  0  0  0  0
   28.6930   21.1320    3.0470 C   0  0  2  0  0  0  0  0  0  0  0  0
   30.2130   21.2600    3.0440 C   0  0  0  0  0  0  0  0  0  0  0  0
   28.2370   20.4480    1.7640 C   0  0  0  0  0  0  0  0  0  0  0  0
   30.9140   19.9510    2.8190 C   0  0  0  0  0  0  0  0  0  0  0  0
   25.7530   21.8970    3.7110 N   0  0  0  0  0  0  0  0  0  0  0  0
   24.3400   21.6820    3.4180 C   0  0  2  0  0  0  0  0  0  0  0  0
   23.6860   22.9960    3.0230 C   0  0  0  0  0  0  0  0  0  0  0  0
   22.8470   23.0470    2.1220 O   0  0  0  0  0  0  0  0  0  0  0  0
   23.6320   21.0850    4.6320 C   0  0  0  0  0  0  0  0  0  0  0  0
   22.1090   20.9790    4.5900 C   0  0  0  0  0  0  0  0  0  0  0  0
   21.6440   20.1730    3.3860 C   0  0  0  0  0  0  0  0  0  0  0  0
   21.6190   20.3440    5.8790 C   0  0  0  0  0  0  0  0  0  0  0  0
   24.0830   24.0550    3.7150 N   0  0  0  0  0  0  0  0  0  0  0  0
   23.5960   25.3980    3.4370 C   0  0  2  0  0  0  0  0  0  0  0  0
   23.8670   25.7780    1.9800 C   0  0  0  0  0  0  0  0  0  0  0  0
   22.9900   26.2980    1.2930 O   0  0  0  0  0  0  0  0  0  0  0  0
   24.2510   26.3950    4.3990 C   0  0  0  0  0  0  0  0  0  0  0  0
   23.6680   27.7710    4.3360 C   0  0  0  0  0  0  0  0  0  0  0  0
   24.3210   28.8290    3.7400 N   0  0  0  0  0  0  0  0  0  0  0  0
   22.4930   28.2630    4.7920 C   0  0  0  0  0  0  0  0  0  0  0  0
   23.5710   29.9130    3.8300 C   0  0  0  0  0  0  0  0  0  0  0  0
   22.4570   29.5970    4.4650 N   0  0  0  0  0  0  0  0  0  0  0  0
   25.0820   25.5040    1.5080 N   0  0  0  0  0  0  0  0  0  0  0  0
   25.4460   25.7850    0.1190 C   0  0  2  0  0  0  0  0  0  0  0  0
   24.6560   24.9060   -0.8570 C   0  0  0  0  0  0  0  0  0  0  0  0
   24.1510   25.3840   -1.8730 O   0  0  0  0  0  0  0  0  0  0  0  0
   26.9550   25.5920   -0.0830 C   0  0  0  0  0  0  0  0  0  0  0  0
   27.4500   25.7900   -1.5130 C   0  0  0  0  0  0  0  0  0  0  0  0
   27.6830   27.2600   -1.8430 C   0  0  0  0  0  0  0  0  0  0  0  0
   28.1340   27.4560   -3.2220 N   0  0  0  0  0  0  0  0  0  0  0  0
   29.4030   27.6390   -3.5820 C   0  0  0  0  0  0  0  0  0  0  0  0
   30.3640   27.6550   -2.6670 N   0  0  0  0  0  0  0  0  0  0  0  0
   29.7120   27.8110   -4.8620 N   0  0  0  0  0  0  0  0  0  0  0  0
   24.5350   23.6210   -0.5360 N   0  0  0  0  0  0  0  0  0  0  0  0
   23.8410   22.6750   -1.4090 C   0  0  2  0  0  0  0  0  0  0  0  0
   22.3630   23.0090   -1.6120 C   0  0  0  0  0  0  0  0  0  0  0  0
   21.7910   22.7040   -2.6560 O   0  0  0  0  0  0  0  0  0  0  0  0
   23.9870   21.2450   -0.8740 C   0  0  0  0  0  0  0  0  0  0  0  0
   25.2770   20.5030   -1.2320 C   0  0  0  0  0  0  0  0  0  0  0  0
   25.4030   19.2110   -0.4360 C   0  0  0  0  0  0  0  0  0  0  0  0
   25.3320   20.2250   -2.7300 C   0  0  0  0  0  0  0  0  0  0  0  0
   21.7440   23.6280   -0.6100 N   0  0  0  0  0  0  0  0  0  0  0  0
   20.3270   23.9720   -0.6880 C   0  0  2  0  0  0  0  0  0  0  0  0
   20.0570   25.1270   -1.6540 C   0  0  0  0  0  0  0  0  0  0  0  0
   18.9140   25.3780   -2.0350 O   0  0  0  0  0  0  0  0  0  0  0  0
   19.7820   24.2940    0.7070 C   0  0  0  0  0  0  0  0  0  0  0  0
   19.4140   23.0550    1.5330 C   0  0  0  0  0  0  0  0  0  0  0  0
   19.3810   23.3620    3.0310 C   0  0  0  0  0  0  0  0  0  0  0  0
   18.0860   22.4910    1.0560 C   0  0  0  0  0  0  0  0  0  0  0  0
   21.1160   25.8180   -2.0540 N   0  0  0  0  0  0  0  0  0  0  0  0
   20.9900   26.9430   -2.9730 C   0  0  2  0  0  0  0  0  0  0  0  0
   21.3660   26.5270   -4.3940 C   0  0  0  0  0  0  0  0  0  0  0  0
   20.8460   27.0730   -5.3680 O   0  0  0  0  0  0  0  0  0  0  0  0
   21.8690   28.1050   -2.4990 C   0  0  0  0  0  0  0  0  0  0  0  0
   21.5100   28.6090   -1.1040 C   0  0  0  0  0  0  0  0  0  0  0  0
   22.5170   29.5970   -0.5480 C   0  0  0  0  0  0  0  0  0  0  0  0
   23.3050   29.2650    0.3400 O   0  0  0  0  0  0  0  0  0  0  0  0
   22.4910   30.8220   -1.0620 N   0  0  0  0  0  0  0  0  0  0  0  0
   22.2610   25.5460   -4.4940 N   0  0  0  0  0  0  0  0  0  0  0  0
   22.7820   25.0630   -5.7730 C   0  0  2  0  0  0  0  0  0  0  0  0
   21.6830   24.9350   -6.8250 C   0  0  0  0  0  0  0  0  0  0  0  0
   20.8750   24.0080   -6.7800 O   0  0  0  0  0  0  0  0  0  0  0  0
   23.4760   23.7090   -5.5810 C   0  0  0  0  0  0  0  0  0  0  0  0
   24.6680   23.4720   -6.4980 C   0  0  0  0  0  0  0  0  0  0  0  0
   25.8980   24.2570   -6.0720 C   0  0  0  0  0  0  0  0  0  0  0  0
   26.3120   24.1250   -4.9000 O   0  0  0  0  0  0  0  0  0  0  0  0
   26.4500   25.0070   -6.9070 O   0  0  0  0  0  0  0  0  0  0  0  0
  2  1  1  0
  3  2  1  0
  4  3  2  0
  2  5  1  1
  6  3  1  0
  7  6  1  1
  8  7  1  0
  9  8  2  0
 10  7  1  0
 11 10  1  0
 10 12  1  6
 13 11  1  0
 14  8  1  0
 15 14  1  0
 16 15  1  0
 17 16  2  0
 15 18  1  1
 19 18  1  0
 20 19  1  0
 21 19  1  0
 22 16  1  0
 23 22  1  0
 24 23  1  0
 25 24  2  0
 23 26  1  1
 27 26  1  0
 28 27  1  0
 29 27  2  0
 30 28  2  0
 31 30  1  0
 31 29  1  0
 32 24  1  0
 33 32  1  0
 34 33  1  0
 35 34  2  0
 33 36  1  1
 37 36  1  0
 38 37  1  0
 39 38  1  0
 40 39  1  0
 41 40  1  0
 42 40  2  0
 43 34  1  0
 44 43  1  0
 45 44  1  0
 46 45  2  0
 44 47  1  1
 48 47  1  0
 49 48  1  0
 50 48  1  0
 51 45  1  0
 52 51  1  0
 53 52  1  0
 54 53  2  0
 52 55  1  1
 56 55  1  0
 57 56  1  0
 58 56  1  0
 59 53  1  0
 60 59  1  0
 61 60  1  0
 62 61  2  0
 60 63  1  1
 64 63  1  0
 65 64  1  0
 66 65  2  0
 67 65  1  0
 68 61  1  0
 69 68  1  0
 70 69  1  0
 71 70  2  0
 69 72  1  1
 73 72  1  0
 74 73  1  0
 75 74  2  0
 76 74  1  0
M  END
$$$$
7T2X
     RDKit          3D

 61 61  0  0  0  0  0  0  0  0999 V2000
    2.5960  -19.3060   -7.6130 N   0  0  0  0  0  0  0  0  0  0  0  0
    2.3960  -19.8920   -8.9340 C   0  0  2  0  0  0  0  0  0  0  0  0
    3.3230  -19.2420   -9.9540 C   0  0  0  0  0  0  0  0  0  0  0  0
    4.3890  -19.7760  -10.2630 O   0  0  0  0  0  0  0  0  0  0  0  0
    0.9380  -19.7460   -9.3750 C   0  0  0  0  0  0  0  0  0  0  0  0
    2.9020  -18.0860  -10.4740 N   0  0  0  0  0  0  0  0  0  0  0  0
    3.7300  -17.3390  -11.4200 C   0  0  2  0  0  0  0  0  0  0  0  0
    5.0940  -17.0260  -10.8190 C   0  0  0  0  0  0  0  0  0  0  0  0
    6.1330  -17.2250  -11.4580 O   0  0  0  0  0  0  0  0  0  0  0  0
    3.0100  -16.0560  -11.8770 C   0  0  2  0  0  0  0  0  0  0  0  0
    3.8370  -15.3290  -12.9430 C   0  0  0  0  0  0  0  0  0  0  0  0
    2.6690  -15.1640  -10.7020 C   0  0  0  0  0  0  0  0  0  0  0  0
    3.1040  -14.1830  -13.6120 C   0  0  0  0  0  0  0  0  0  0  0  0
    5.1100  -16.5200   -9.5830 N   0  0  0  0  0  0  0  0  0  0  0  0
    6.3700  -16.1020   -8.9750 C   0  0  2  0  0  0  0  0  0  0  0  0
    7.4040  -17.2170   -8.9940 C   0  0  0  0  0  0  0  0  0  0  0  0
    8.6040  -16.9490   -9.1170 O   0  0  0  0  0  0  0  0  0  0  0  0
    6.1340  -15.6240   -7.5400 C   0  0  0  0  0  0  0  0  0  0  0  0
    7.3020  -14.8810   -6.8800 C   0  0  0  0  0  0  0  0  0  0  0  0
    7.8930  -13.8500   -7.8270 C   0  0  0  0  0  0  0  0  0  0  0  0
    6.8570  -14.2190   -5.5830 C   0  0  0  0  0  0  0  0  0  0  0  0
    6.9610  -18.4710   -8.8820 N   0  0  0  0  0  0  0  0  0  0  0  0
    7.8990  -19.5890   -8.8910 C   0  0  2  0  0  0  0  0  0  0  0  0
    8.6330  -19.6830  -10.2230 C   0  0  0  0  0  0  0  0  0  0  0  0
    9.8390  -19.9550  -10.2580 O   0  0  0  0  0  0  0  0  0  0  0  0
    7.1620  -20.8950   -8.5920 C   0  0  0  0  0  0  0  0  0  0  0  0
    6.9490  -21.1500   -7.1320 C   0  0  0  0  0  0  0  0  0  0  0  0
    5.7660  -20.8510   -6.4900 N   0  0  0  0  0  0  0  0  0  0  0  0
    7.7650  -21.6770   -6.1890 C   0  0  0  0  0  0  0  0  0  0  0  0
    5.8630  -21.1820   -5.2140 C   0  0  0  0  0  0  0  0  0  0  0  0
    7.0670  -21.6850   -5.0060 N   0  0  0  0  0  0  0  0  0  0  0  0
    7.9200  -19.4660  -11.3320 N   0  0  0  0  0  0  0  0  0  0  0  0
    8.5470  -19.5760  -12.6450 C   0  0  2  0  0  0  0  0  0  0  0  0
    9.6310  -18.5250  -12.8420 C   0  0  0  0  0  0  0  0  0  0  0  0
   10.5920  -18.7570  -13.5850 O   0  0  0  0  0  0  0  0  0  0  0  0
    7.4900  -19.4580  -13.7440 C   0  0  0  0  0  0  0  0  0  0  0  0
    9.4980  -17.3680  -12.1890 N   0  0  0  0  0  0  0  0  0  0  0  0
   10.4830  -16.3080  -12.3730 C   0  0  2  0  0  0  0  0  0  0  0  0
   11.8030  -16.6740  -11.7090 C   0  0  0  0  0  0  0  0  0  0  0  0
   12.8770  -16.4610  -12.2840 O   0  0  0  0  0  0  0  0  0  0  0  0
    9.9510  -14.9900  -11.8120 C   0  0  0  0  0  0  0  0  0  0  0  0
    8.9430  -14.2270  -12.6770 C   0  0  0  0  0  0  0  0  0  0  0  0
    9.5350  -13.8350  -14.0230 C   0  0  0  0  0  0  0  0  0  0  0  0
    7.6460  -15.0180  -12.8430 C   0  0  0  0  0  0  0  0  0  0  0  0
   11.7420  -17.2320  -10.4970 N   0  0  0  0  0  0  0  0  0  0  0  0
   12.9390  -17.6880   -9.8040 C   0  0  2  0  0  0  0  0  0  0  0  0
   13.4650  -19.0080  -10.3520 C   0  0  0  0  0  0  0  0  0  0  0  0
   14.6410  -19.3250  -10.1430 O   0  0  0  0  0  0  0  0  0  0  0  0
   12.6570  -17.8320   -8.3060 C   0  0  0  0  0  0  0  0  0  0  0  0
   12.3830  -16.5460   -7.5240 C   0  0  0  0  0  0  0  0  0  0  0  0
   11.3720  -16.7980   -6.4190 C   0  0  0  0  0  0  0  0  0  0  0  0
   13.6750  -15.9820   -6.9540 C   0  0  0  0  0  0  0  0  0  0  0  0
   12.6270  -19.7770  -11.0410 N   0  0  0  0  0  0  0  0  0  0  0  0
   13.0300  -21.0670  -11.5870 C   0  0  2  0  0  0  0  0  0  0  0  0
   14.1260  -20.9070  -12.6340 C   0  0  0  0  0  0  0  0  0  0  0  0
   15.0640  -21.7010  -12.6880 O   0  0  0  0  0  0  0  0  0  0  0  0
   11.8240  -21.7900  -12.1930 C   0  0  0  0  0  0  0  0  0  0  0  0
   12.1500  -23.1430  -12.8090 C   0  0  0  0  0  0  0  0  0  0  0  0
   12.3170  -23.0750  -14.3160 C   0  0  0  0  0  0  0  0  0  0  0  0
   11.8820  -22.1190  -14.9590 O   0  0  0  0  0  0  0  0  0  0  0  0
   12.9490  -24.0940  -14.8870 N   0  0  0  0  0  0  0  0  0  0  0  0
  2  1  1  0
  3  2  1  0
  4  3  2  0
  2  5  1  6
  6  3  1  0
  7  6  1  1
  8  7  1  0
  9  8  2  0
 10  7  1  0
 11 10  1  0
 10 12  1  1
 13 11  1  0
 14  8  1  0
 15 14  1  0
 16 15  1  0
 17 16  2  0
 15 18  1  1
 19 18  1  0
 20 19  1  0
 21 19  1  0
 22 16  1  0
 23 22  1  0
 24 23  1  0
 25 24  2  0
 23 26  1  6
 27 26  1  0
 28 27  1  0
 29 27  2  0
 30 28  2  0
 31 29  1  0
 31 30  1  0
 32 24  1  0
 33 32  1  0
 34 33  1  0
 35 34  2  0
 33 36  1  6
 37 34  1  0
 38 37  1  0
 39 38  1  0
 40 39  2  0
 38 41  1  1
 42 41  1  0
 43 42  1  0
 44 42  1  0
 45 39  1  0
 46 45  1  0
 47 46  1  0
 48 47  2  0
 46 49  1  1
 50 49  1  0
 51 50  1  0
 52 50  1  0
 53 47  1  0
 54 53  1  0
 55 54  1  0
 56 55  2  0
 54 57  1  6
 58 57  1  0
 59 58  1  0
 60 59  2  0
 61 59  1  0
M  END
$$$$
6CBZ
     RDKit          3D

 67 67  0  0  0  0  0  0  0  0999 V2000
   29.2290   20.0110    6.4610 N   0  0  0  0  0  0  0  0  0  0  0  0
   28.5770   18.7040    6.5430 C   0  0  2  0  0  0  0  0  0  0  0  0
   28.2260   18.1680    5.1540 C   0  0  0  0  0  0  0  0  0  0  0  0
   27.5790   18.8500    4.3560 O   0  0  0  0  0  0  0  0  0  0  0  0
   27.3340   18.7870    7.4100 C   0  0  0  0  0  0  0  0  0  0  0  0
   28.6580   16.9410    4.8750 N   0  0  0  0  0  0  0  0  0  0  0  0
   28.5370   16.3580    3.5470 C   0  0  2  0  0  0  0  0  0  0  0  0
   27.0770   16.1770    3.1190 C   0  0  0  0  0  0  0  0  0  0  0  0
   26.7140   16.4270    1.9750 O   0  0  0  0  0  0  0  0  0  0  0  0
   29.2590   15.0030    3.4840 C   0  0  2  0  0  0  0  0  0  0  0  0
   30.7500   15.1870    3.7990 C   0  0  0  0  0  0  0  0  0  0  0  0
   29.0540   14.3440    2.1260 C   0  0  0  0  0  0  0  0  0  0  0  0
   31.5440   13.8990    3.7790 C   0  0  0  0  0  0  0  0  0  0  0  0
   26.2440   15.7250    4.0440 N   0  0  0  0  0  0  0  0  0  0  0  0
   24.8410   15.4880    3.7220 C   0  0  2  0  0  0  0  0  0  0  0  0
   24.1510   16.7950    3.3350 C   0  0  0  0  0  0  0  0  0  0  0  0
   23.3350   16.8380    2.4140 O   0  0  0  0  0  0  0  0  0  0  0  0
   24.1340   14.8410    4.9080 C   0  0  0  0  0  0  0  0  0  0  0  0
   22.6400   14.5510    4.8050 C   0  0  0  0  0  0  0  0  0  0  0  0
   22.3090   13.6760    3.6000 C   0  0  0  0  0  0  0  0  0  0  0  0
   22.1900   13.8650    6.0920 C   0  0  0  0  0  0  0  0  0  0  0  0
   24.4850   17.8610    4.0570 N   0  0  0  0  0  0  0  0  0  0  0  0
   23.9610   19.1910    3.7600 C   0  0  2  0  0  0  0  0  0  0  0  0
   24.2390   19.5970    2.3020 C   0  0  0  0  0  0  0  0  0  0  0  0
   23.3500   20.0630    1.5960 O   0  0  0  0  0  0  0  0  0  0  0  0
   24.5700   20.2130    4.7290 C   0  0  0  0  0  0  0  0  0  0  0  0
   23.9960   21.5840    4.5920 C   0  0  0  0  0  0  0  0  0  0  0  0
   24.5930   22.5680    3.8360 N   0  0  0  0  0  0  0  0  0  0  0  0
   22.8710   22.1340    5.1090 C   0  0  0  0  0  0  0  0  0  0  0  0
   23.8600   23.6660    3.8870 C   0  0  0  0  0  0  0  0  0  0  0  0
   22.8120   23.4310    4.6550 N   0  0  0  0  0  0  0  0  0  0  0  0
   25.4760   19.4060    1.8520 N   0  0  0  0  0  0  0  0  0  0  0  0
   25.8230   19.6770    0.4530 C   0  0  2  0  0  0  0  0  0  0  0  0
   25.0880   18.7630   -0.5160 C   0  0  0  0  0  0  0  0  0  0  0  0
   24.5470   19.2140   -1.5300 O   0  0  0  0  0  0  0  0  0  0  0  0
   27.3300   19.5290    0.2330 C   0  0  0  0  0  0  0  0  0  0  0  0
   27.7480   19.6730   -1.2220 C   0  0  0  0  0  0  0  0  0  0  0  0
   27.7290   21.1280   -1.6670 C   0  0  0  0  0  0  0  0  0  0  0  0
   28.1030   21.2670   -3.0750 N   0  0  0  0  0  0  0  0  0  0  0  0
   29.3070   21.6500   -3.5040 C   0  0  0  0  0  0  0  0  0  0  0  0
   30.2640   21.9510   -2.6360 N   0  0  0  0  0  0  0  0  0  0  0  0
   29.5460   21.7420   -4.8090 N   0  0  0  0  0  0  0  0  0  0  0  0
   25.0670   17.4660   -0.2090 N   0  0  0  0  0  0  0  0  0  0  0  0
   24.4540   16.4850   -1.0960 C   0  0  2  0  0  0  0  0  0  0  0  0
   22.9590   16.7280   -1.2940 C   0  0  0  0  0  0  0  0  0  0  0  0
   22.4140   16.4060   -2.3500 O   0  0  0  0  0  0  0  0  0  0  0  0
   24.6730   15.0630   -0.5600 C   0  0  0  0  0  0  0  0  0  0  0  0
   26.0990   14.5370   -0.6490 C   0  0  0  0  0  0  0  0  0  0  0  0
   26.1700   13.1320   -0.0770 C   0  0  0  0  0  0  0  0  0  0  0  0
   26.5640   14.5520   -2.1020 C   0  0  0  0  0  0  0  0  0  0  0  0
   22.2990   17.2900   -0.2830 N   0  0  0  0  0  0  0  0  0  0  0  0
   20.8660   17.5500   -0.3740 C   0  0  2  0  0  0  0  0  0  0  0  0
   20.5800   18.6860   -1.3590 C   0  0  0  0  0  0  0  0  0  0  0  0
   19.4520   18.8700   -1.8210 O   0  0  0  0  0  0  0  0  0  0  0  0
   20.2920   17.8580    1.0120 C   0  0  0  0  0  0  0  0  0  0  0  0
   19.9330   16.6010    1.8200 C   0  0  0  0  0  0  0  0  0  0  0  0
   19.8010   16.9140    3.3140 C   0  0  0  0  0  0  0  0  0  0  0  0
   18.6230   16.0000    1.2910 C   0  0  0  0  0  0  0  0  0  0  0  0
   21.6180   19.4400   -1.6960 N   0  0  0  0  0  0  0  0  0  0  0  0
   21.4670   20.5290   -2.6510 C   0  0  2  0  0  0  0  0  0  0  0  0
   21.8240   20.1000   -4.0710 C   0  0  0  0  0  0  0  0  0  0  0  0
   21.2120   20.5770   -5.0280 O   0  0  0  0  0  0  0  0  0  0  0  0
   22.3200   21.7100   -2.2200 C   0  0  0  0  0  0  0  0  0  0  0  0
   21.9090   22.2460   -0.8560 C   0  0  0  0  0  0  0  0  0  0  0  0
   22.8490   23.3080   -0.3410 C   0  0  0  0  0  0  0  0  0  0  0  0
   22.8570   24.4360   -0.8300 O   0  0  0  0  0  0  0  0  0  0  0  0
   23.6500   22.9520    0.6640 N   0  0  0  0  0  0  0  0  0  0  0  0
  2  1  1  0
  3  2  1  0
  4  3  2  0
  2  5  1  1
  6  3  1  0
  7  6  1  1
  8  7  1  0
  9  8  2  0
 10  7  1  0
 11 10  1  0
 10 12  1  6
 13 11  1  0
 14  8  1  0
 15 14  1  0
 16 15  1  0
 17 16  2  0
 15 18  1  1
 19 18  1  0
 20 19  1  0
 21 19  1  0
 22 16  1  0
 23 22  1  0
 24 23  1  0
 25 24  2  0
 23 26  1  1
 27 26  1  0
 28 27  1  0
 29 27  2  0
 30 28  2  0
 31 30  1  0
 31 29  1  0
 32 24  1  0
 33 32  1  0
 34 33  1  0
 35 34  2  0
 33 36  1  1
 37 36  1  0
 38 37  1  0
 39 38  1  0
 40 39  1  0
 41 40  1  0
 42 40  2  0
 43 34  1  0
 44 43  1  0
 45 44  1  0
 46 45  2  0
 44 47  1  1
 48 47  1  0
 49 48  1  0
 50 48  1  0
 51 45  1  0
 52 51  1  0
 53 52  1  0
 54 53  2  0
 52 55  1  1
 56 55  1  0
 57 56  1  0
 58 56  1  0
 59 53  1  0
 60 59  1  0
 61 60  1  0
 62 61  2  0
 60 63  1  1
 64 63  1  0
 65 64  1  0
 66 65  2  0
 67 65  1  0
M  END
$$$$
8ATP
     RDKit          3D

 42 43  0  0  0  0  0  0  0  0999 V2000
  -12.9490   -8.0400   14.4620 N   0  0  0  0  0  0  0  0  0  0  0  0
  -13.8790   -9.1940   14.4750 C   0  0  2  0  0  0  0  0  0  0  0  0
  -13.2310  -10.3980   13.7950 C   0  0  0  0  0  0  0  0  0  0  0  0
  -12.3590  -10.2860   12.9260 O   0  0  0  0  0  0  0  0  0  0  0  0
  -15.2270   -8.8460   13.8160 C   0  0  0  0  0  0  0  0  0  0  0  0
  -15.0990   -8.1950   12.4860 C   0  0  0  0  0  0  0  0  0  0  0  0
  -15.0250   -8.9690   11.3220 C   0  0  0  0  0  0  0  0  0  0  0  0
  -15.0540   -6.8080   12.3750 C   0  0  0  0  0  0  0  0  0  0  0  0
  -14.8750   -8.3560   10.0760 C   0  0  0  0  0  0  0  0  0  0  0  0
  -14.9000   -6.1960   11.1310 C   0  0  0  0  0  0  0  0  0  0  0  0
  -14.8200   -6.9740    9.9840 C   0  0  0  0  0  0  0  0  0  0  0  0
  -13.5970  -11.6070   14.2280 N   0  0  0  0  0  0  0  0  0  0  0  0
  -13.0220  -12.8140   13.6480 C   0  0  2  0  0  0  0  0  0  0  0  0
  -13.6100  -13.1360   12.2720 C   0  0  0  0  0  0  0  0  0  0  0  0
  -14.6820  -12.6990   11.9230 O   0  0  0  0  0  0  0  0  0  0  0  0
  -13.3390  -13.8500   14.7110 C   0  0  0  0  0  0  0  0  0  0  0  0
  -14.6610  -13.3930   15.2600 C   0  0  0  0  0  0  0  0  0  0  0  0
  -14.5530  -11.8880   15.3100 C   0  0  0  0  0  0  0  0  0  0  0  0
  -12.8850  -13.9360   11.5270 N   0  0  0  0  0  0  0  0  0  0  0  0
  -13.2910  -14.3370   10.2200 C   0  0  2  0  0  0  0  0  0  0  0  0
  -14.4000  -15.3710   10.2310 C   0  0  0  0  0  0  0  0  0  0  0  0
  -14.3330  -16.3540   10.9580 O   0  0  0  0  0  0  0  0  0  0  0  0
  -12.1030  -14.9510    9.4960 C   0  0  0  0  0  0  0  0  0  0  0  0
  -15.3980  -15.1550    9.3780 N   0  0  0  0  0  0  0  0  0  0  0  0
  -16.4640  -16.1040    9.0530 C   0  0  1  0  0  0  0  0  0  0  0  0
  -17.7490  -15.7880    9.8250 C   0  0  1  0  0  0  0  0  0  0  0  0
  -17.5540  -15.9350   11.3260 C   0  0  0  0  0  0  0  0  0  0  0  0
  -18.1110  -14.4150    9.4910 O   0  0  0  0  0  0  0  0  0  0  0  0
  -19.5270  -13.7630    9.8750 P   0  0  0  0  0  0  0  0  0  0  0  0
  -19.5830  -12.5500    8.9890 O   0  0  0  0  0  0  0  0  0  0  0  0
  -19.5130  -13.4150   11.3680 O   0  0  0  0  0  0  0  0  0  0  0  0
  -20.5910  -14.7910    9.5720 O   0  0  0  0  0  0  0  0  0  0  0  0
  -16.6840  -16.1170    7.5480 C   0  0  0  0  0  0  0  0  0  0  0  0
  -16.3430  -15.1500    6.8890 O   0  0  0  0  0  0  0  0  0  0  0  0
  -17.2550  -17.2080    7.0470 N   0  0  0  0  0  0  0  0  0  0  0  0
  -17.5670  -17.3320    5.6410 C   0  0  2  0  0  0  0  0  0  0  0  0
  -19.0010  -17.6140    5.3580 C   0  0  0  0  0  0  0  0  0  0  0  0
  -19.7680  -17.9910    6.2460 O   0  0  0  0  0  0  0  0  0  0  0  0
  -16.7010  -18.3870    4.9430 C   0  0  0  0  0  0  0  0  0  0  0  0
  -15.2560  -17.9720    5.0270 C   0  0  0  0  0  0  0  0  0  0  0  0
  -16.9610  -19.7640    5.5070 C   0  0  0  0  0  0  0  0  0  0  0  0
  -19.4060  -17.4510    4.1660 O   0  0  0  0  0  0  0  0  0  0  0  0
  2  1  1  6
  3  2  1  0
  4  3  2  0
  5  2  1  0
  6  5  1  0
  7  6  2  0
  8  6  1  0
  9  7  1  0
 10  8  2  0
 11  9  2  0
 11 10  1  0
 12  3  1  0
 13 12  1  0
 13 14  1  6
 15 14  2  0
 16 13  1  0
 17 16  1  0
 18 17  1  0
 18 12  1  0
 19 14  1  0
 20 19  1  0
 21 20  1  0
 22 21  2  0
 20 23  1  1
 24 21  1  0
 25 24  1  6
 26 25  1  0
 26 27  1  1
 28 26  1  0
 29 28  1  0
 30 29  1  0
 31 29  1  0
 32 29  1  0
 33 25  1  0
 34 33  1  0
 35 33  1  0
 36 35  1  1
 37 36  1  0
 38 37  2  0
 39 36  1  0
 40 39  1  0
 41 39  1  0
 42 37  1  0
M  END
$$$$
7RS1
     RDKit          3D

 38 42  0  0  0  0  0  0  0  0999 V2000
   -2.4400    9.3100   18.4020 C   0  0  0  0  0  0  0  0  0  0  0  0
   -4.2380   11.1750   16.8020 C   0  0  0  0  0  0  0  0  0  0  0  0
   -1.2800    8.7130   23.1160 C   0  0  0  0  0  0  0  0  0  0  0  0
    0.7660   10.2470   22.9230 C   0  0  0  0  0  0  0  0  0  0  0  0
   -9.1260    7.9430   19.4800 C   0  0  0  0  0  0  0  0  0  0  0  0
   -5.1650    5.8830   16.8360 C   0  0  0  0  0  0  0  0  0  0  0  0
   -5.8010    8.3640   16.1920 C   0  0  0  0  0  0  0  0  0  0  0  0
   -4.1850    9.6650   20.3550 C   0  0  1  0  0  0  0  0  0  0  0  0
   -5.3740    8.8390   20.6070 C   0  0  1  0  0  0  0  0  0  0  0  0
   -5.0960    7.5090   20.8320 C   0  0  1  0  0  0  0  0  0  0  0  0
   -4.5750    7.2840   21.9370 C   0  0  0  0  0  0  0  0  0  0  0  0
   -3.2970    9.1560   21.7020 C   0  0  2  0  0  0  0  0  0  0  0  0
   -4.2920    8.4570   22.5240 C   0  0  1  0  0  0  0  0  0  0  0  0
   -5.5750    9.1420   22.0320 O   0  0  0  0  0  0  0  0  0  0  0  0
   -1.9190    9.5640   22.0640 C   0  0  0  0  0  0  0  0  0  0  0  0
   -3.7130    9.9190   18.9780 C   0  0  0  0  0  0  0  0  0  0  0  0
   -2.0840    9.6620   16.9930 C   0  0  0  0  0  0  0  0  0  0  0  0
   -2.9880   10.5980   16.2130 C   0  0  0  0  0  0  0  0  0  0  0  0
   -4.6110   10.8490   18.2040 C   0  0  0  0  0  0  0  0  0  0  0  0
    0.0970    9.0610   23.5570 C   0  0  0  0  0  0  0  0  0  0  0  0
    0.1150   11.0950   21.8440 C   0  0  0  0  0  0  0  0  0  0  0  0
   -1.2810   10.7590   21.4030 C   0  0  0  0  0  0  0  0  0  0  0  0
    2.0380   10.5250   23.3810 O   0  0  0  0  0  0  0  0  0  0  0  0
   -2.6510   10.8980   14.9120 O   0  0  0  0  0  0  0  0  0  0  0  0
   -7.8130    7.2930   19.4520 N   0  0  0  0  0  0  0  0  0  0  0  0
   -6.9420    7.2130   18.2750 C   0  0  2  0  0  0  0  0  0  0  0  0
   -6.1250    5.9550   18.0160 C   0  0  0  0  0  0  0  0  0  0  0  0
   -5.0190    7.0890   15.9310 C   0  0  1  0  0  0  0  0  0  0  0  0
   -6.7600    8.4330   17.3780 C   0  0  0  0  0  0  0  0  0  0  0  0
   -4.0340    7.0250   14.7790 C   0  0  0  0  0  0  0  0  0  0  0  0
   -3.5970    5.8820   14.3440 C   0  0  0  0  0  0  0  0  0  0  0  0
   -7.0420    6.7060   20.8900 S   0  0  2  0  0  0  0  0  0  0  0  0
   -7.7040    7.1610   22.1370 O   0  0  0  0  0  0  0  0  0  0  0  0
   -6.9340    5.2590   21.0430 O   0  0  0  0  0  0  0  0  0  0  0  0
  -10.2750    7.0200   19.1140 C   0  0  2  0  0  0  0  0  0  0  0  0
  -10.5330    6.2130   20.1860 F   0  0  0  0  0  0  0  0  0  0  0  0
   -9.9270    6.2980   18.0040 F   0  0  0  0  0  0  0  0  0  0  0  0
  -11.3820    7.7820   18.8570 F   0  0  0  0  0  0  0  0  0  0  0  0
  9  8  1  0
 10  9  1  0
 10 11  1  1
 12  8  1  0
 13 12  1  0
 13 11  1  6
  9 14  1  1
 14 13  1  0
 12 15  1  1
 15  3  1  0
  8 16  1  6
 16  1  1  0
 17  1  1  0
 18 17  1  0
 18  2  1  0
 19 16  1  0
 19  2  1  0
 20  4  1  0
 20  3  1  0
 21  4  1  0
 22 15  1  0
 22 21  1  0
 23  4  1  0
 24 18  1  0
 25  5  1  0
 26 25  1  1
 27 26  1  0
 27  6  1  0
 28  7  1  0
 28  6  1  0
 29  7  1  0
 29 26  1  0
 28 30  1  1
 31 30  1  0
 32 25  1  0
 32 10  1  0
 32 33  1  1
 34 32  1  0
 35  5  1  0
 35 36  1  1
 37 35  1  0
 38 35  1  0
M  END
$$$$
5DWG
     RDKit          3D

 67 67  0  0  0  0  0  0  0  0999 V2000
  -29.7050   -6.7030   -6.8270 N   0  0  0  0  0  0  0  0  0  0  0  0
  -28.9050   -7.8860   -6.5290 C   0  0  2  0  0  0  0  0  0  0  0  0
  -28.5690   -7.9850   -5.0430 C   0  0  0  0  0  0  0  0  0  0  0  0
  -28.2630   -6.9830   -4.3950 O   0  0  0  0  0  0  0  0  0  0  0  0
  -27.6160   -7.8800   -7.3560 C   0  0  0  0  0  0  0  0  0  0  0  0
  -28.6250   -9.2030   -4.5150 N   0  0  0  0  0  0  0  0  0  0  0  0
  -28.3220   -9.4630   -3.1110 C   0  0  2  0  0  0  0  0  0  0  0  0
  -26.9060   -9.0430   -2.7190 C   0  0  0  0  0  0  0  0  0  0  0  0
  -26.6760   -8.6070   -1.5900 O   0  0  0  0  0  0  0  0  0  0  0  0
  -28.4990  -10.9550   -2.7780 C   0  0  2  0  0  0  0  0  0  0  0  0
  -29.9260  -11.4070   -3.0930 C   0  0  0  0  0  0  0  0  0  0  0  0
  -28.1470  -11.2220   -1.3230 C   0  0  0  0  0  0  0  0  0  0  0  0
  -30.1090  -12.9060   -3.0810 C   0  0  0  0  0  0  0  0  0  0  0  0
  -25.9610   -9.1840   -3.6480 N   0  0  0  0  0  0  0  0  0  0  0  0
  -24.5680   -8.8220   -3.3910 C   0  0  2  0  0  0  0  0  0  0  0  0
  -24.4220   -7.3690   -2.9490 C   0  0  0  0  0  0  0  0  0  0  0  0
  -23.6270   -7.0660   -2.0590 O   0  0  0  0  0  0  0  0  0  0  0  0
  -23.7050   -9.0700   -4.6310 C   0  0  0  0  0  0  0  0  0  0  0  0
  -22.9550  -10.4020   -4.7030 C   0  0  0  0  0  0  0  0  0  0  0  0
  -22.1250  -10.4800   -5.9790 C   0  0  0  0  0  0  0  0  0  0  0  0
  -22.0760  -10.5880   -3.4750 C   0  0  0  0  0  0  0  0  0  0  0  0
  -25.1870   -6.4800   -3.5770 N   0  0  0  0  0  0  0  0  0  0  0  0
  -25.1760   -5.0630   -3.2270 C   0  0  2  0  0  0  0  0  0  0  0  0
  -25.3930   -4.8660   -1.7310 C   0  0  0  0  0  0  0  0  0  0  0  0
  -24.6250   -4.1730   -1.0640 O   0  0  0  0  0  0  0  0  0  0  0  0
  -26.2540   -4.3030   -4.0050 C   0  0  0  0  0  0  0  0  0  0  0  0
  -26.0890   -4.3600   -5.4920 C   0  0  0  0  0  0  0  0  0  0  0  0
  -27.1470   -4.1990   -6.3620 N   0  0  0  0  0  0  0  0  0  0  0  0
  -24.9930   -4.5480   -6.2640 C   0  0  0  0  0  0  0  0  0  0  0  0
  -26.7100   -4.2920   -7.6050 C   0  0  0  0  0  0  0  0  0  0  0  0
  -25.4060   -4.5030   -7.5740 N   0  0  0  0  0  0  0  0  0  0  0  0
  -26.4430   -5.4950   -1.2140 N   0  0  0  0  0  0  0  0  0  0  0  0
  -26.8350   -5.3430    0.1820 C   0  0  2  0  0  0  0  0  0  0  0  0
  -25.8250   -5.9810    1.1330 C   0  0  0  0  0  0  0  0  0  0  0  0
  -25.4780   -5.4030    2.1640 O   0  0  0  0  0  0  0  0  0  0  0  0
  -28.2220   -5.9500    0.4010 C   0  0  0  0  0  0  0  0  0  0  0  0
  -28.8750   -5.5520    1.7070 C   0  0  0  0  0  0  0  0  0  0  0  0
  -30.2630   -6.1560    1.8320 C   0  0  0  0  0  0  0  0  0  0  0  0
  -30.2370   -7.6150    1.7660 N   0  0  0  0  0  0  0  0  0  0  0  0
  -29.8320   -8.3990    2.7600 C   0  0  0  0  0  0  0  0  0  0  0  0
  -29.8450   -9.7180    2.6160 N   0  0  0  0  0  0  0  0  0  0  0  0
  -29.4080   -7.8650    3.8970 N   0  0  0  0  0  0  0  0  0  0  0  0
  -25.3590   -7.1750    0.7780 N   0  0  0  0  0  0  0  0  0  0  0  0
  -24.4140   -7.9180    1.6060 C   0  0  2  0  0  0  0  0  0  0  0  0
  -23.0670   -7.2150    1.7100 C   0  0  0  0  0  0  0  0  0  0  0  0
  -22.3820   -7.3150    2.7270 O   0  0  0  0  0  0  0  0  0  0  0  0
  -24.2150   -9.3290    1.0510 C   0  0  0  0  0  0  0  0  0  0  0  0
  -25.1490  -10.4390    1.5380 C   0  0  0  0  0  0  0  0  0  0  0  0
  -26.6050   -9.9870    1.5570 C   0  0  0  0  0  0  0  0  0  0  0  0
  -24.9780  -11.6650    0.6600 C   0  0  0  0  0  0  0  0  0  0  0  0
  -22.6910   -6.5080    0.6480 N   0  0  0  0  0  0  0  0  0  0  0  0
  -21.4090   -5.8140    0.6000 C   0  0  2  0  0  0  0  0  0  0  0  0
  -21.4700   -4.4720    1.3220 C   0  0  0  0  0  0  0  0  0  0  0  0
  -20.4800   -3.7430    1.3810 O   0  0  0  0  0  0  0  0  0  0  0  0
  -20.9670   -5.6110   -0.8500 C   0  0  0  0  0  0  0  0  0  0  0  0
  -20.3430   -6.8090   -1.5660 C   0  0  0  0  0  0  0  0  0  0  0  0
  -20.1910   -6.5170   -3.0490 C   0  0  0  0  0  0  0  0  0  0  0  0
  -18.9960   -7.1480   -0.9530 C   0  0  0  0  0  0  0  0  0  0  0  0
  -22.6380   -4.1470    1.8660 N   0  0  0  0  0  0  0  0  0  0  0  0
  -22.8070   -2.9210    2.6370 C   0  0  2  0  0  0  0  0  0  0  0  0
  -23.6170   -3.1770    3.9030 C   0  0  0  0  0  0  0  0  0  0  0  0
  -23.1300   -2.9700    5.0150 O   0  0  0  0  0  0  0  0  0  0  0  0
  -23.4780   -1.8370    1.7890 C   0  0  0  0  0  0  0  0  0  0  0  0
  -24.8440   -2.2160    1.2420 C   0  0  0  0  0  0  0  0  0  0  0  0
  -25.4090   -1.1540    0.3180 C   0  0  0  0  0  0  0  0  0  0  0  0
  -24.8140   -0.0930    0.1410 O   0  0  0  0  0  0  0  0  0  0  0  0
  -26.5630   -1.4360   -0.2780 N   0  0  0  0  0  0  0  0  0  0  0  0
  2  1  1  0
  3  2  1  0
  4  3  2  0
  2  5  1  6
  6  3  1  0
  7  6  1  6
  8  7  1  0
  9  8  2  0
 10  7  1  0
 11 10  1  0
 10 12  1  1
 13 11  1  0
 14  8  1  0
 15 14  1  0
 16 15  1  0
 17 16  2  0
 15 18  1  6
 19 18  1  0
 20 19  1  0
 21 19  1  0
 22 16  1  0
 23 22  1  0
 24 23  1  0
 25 24  2  0
 23 26  1  6
 27 26  1  0
 28 27  1  0
 29 27  2  0
 30 28  2  0
 31 30  1  0
 31 29  1  0
 32 24  1  0
 33 32  1  0
 34 33  1  0
 35 34  2  0
 33 36  1  6
 37 36  1  0
 38 37  1  0
 39 38  1  0
 40 39  1  0
 41 40  1  0
 42 40  2  0
 43 34  1  0
 44 43  1  0
 45 44  1  0
 46 45  2  0
 44 47  1  6
 48 47  1  0
 49 48  1  0
 50 48  1  0
 51 45  1  0
 52 51  1  0
 53 52  1  0
 54 53  2  0
 52 55  1  6
 56 55  1  0
 57 56  1  0
 58 56  1  0
 59 53  1  0
 60 59  1  0
 61 60  1  0
 62 61  2  0
 60 63  1  6
 64 63  1  0
 65 64  1  0
 66 65  2  0
 67 65  1  0
M  END
$$$$
8ALV
     RDKit          3D

 71 72  0  0  0  0  0  0  0  0999 V2000
  -12.5370   -8.2400   14.8550 N   0  0  0  0  0  0  0  0  0  0  0  0
  -13.6400   -9.1610   14.5870 C   0  0  2  0  0  0  0  0  0  0  0  0
  -13.1240  -10.3670   13.8140 C   0  0  0  0  0  0  0  0  0  0  0  0
  -12.3800  -10.2190   12.8400 O   0  0  0  0  0  0  0  0  0  0  0  0
  -14.7520   -8.4350   13.8320 C   0  0  0  0  0  0  0  0  0  0  0  0
  -15.5290   -7.4790   14.7050 C   0  0  0  0  0  0  0  0  0  0  0  0
  -16.1870   -7.9420   15.8330 C   0  0  0  0  0  0  0  0  0  0  0  0
  -15.5930   -6.1240   14.4070 C   0  0  0  0  0  0  0  0  0  0  0  0
  -16.8940   -7.0770   16.6460 C   0  0  0  0  0  0  0  0  0  0  0  0
  -16.3060   -5.2520   15.2190 C   0  0  0  0  0  0  0  0  0  0  0  0
  -16.9510   -5.7330   16.3390 C   0  0  0  0  0  0  0  0  0  0  0  0
  -14.0300   -9.4860   15.4140 H   0  0  0  0  0  0  0  0  0  0  0  0
  -14.3590   -7.9250   13.1060 H   0  0  0  0  0  0  0  0  0  0  0  0
  -15.3730   -9.0900   13.4780 H   0  0  0  0  0  0  0  0  0  0  0  0
  -16.1520   -8.8470   16.0460 H   0  0  0  0  0  0  0  0  0  0  0  0
  -15.1530   -5.7970   13.6560 H   0  0  0  0  0  0  0  0  0  0  0  0
  -17.3310   -7.4000   17.4000 H   0  0  0  0  0  0  0  0  0  0  0  0
  -16.3500   -4.3480   15.0080 H   0  0  0  0  0  0  0  0  0  0  0  0
  -17.4240   -5.1500   16.8880 H   0  0  0  0  0  0  0  0  0  0  0  0
  -13.4970  -11.5610   14.2630 N   0  0  0  0  0  0  0  0  0  0  0  0
  -12.8980  -12.7710   13.7020 C   0  0  2  0  0  0  0  0  0  0  0  0
  -13.4910  -13.1450   12.3550 C   0  0  0  0  0  0  0  0  0  0  0  0
  -14.5740  -12.7170   11.9600 O   0  0  0  0  0  0  0  0  0  0  0  0
  -13.2090  -13.8270   14.7640 C   0  0  0  0  0  0  0  0  0  0  0  0
  -14.5440  -13.4090   15.2890 C   0  0  0  0  0  0  0  0  0  0  0  0
  -14.4520  -11.8810   15.3460 C   0  0  0  0  0  0  0  0  0  0  0  0
  -11.9390  -12.6720   13.6030 H   0  0  0  0  0  0  0  0  0  0  0  0
  -13.2490  -14.7080   14.3610 H   0  0  0  0  0  0  0  0  0  0  0  0
  -12.5350  -13.8110   15.4610 H   0  0  0  0  0  0  0  0  0  0  0  0
  -15.2470  -13.6960   14.6860 H   0  0  0  0  0  0  0  0  0  0  0  0
  -14.6910  -13.7840   16.1720 H   0  0  0  0  0  0  0  0  0  0  0  0
  -15.3170  -11.4760   15.1750 H   0  0  0  0  0  0  0  0  0  0  0  0
  -14.1120  -11.5870   16.2050 H   0  0  0  0  0  0  0  0  0  0  0  0
  -12.7520  -13.9860   11.6440 N   0  0  0  0  0  0  0  0  0  0  0  0
  -13.1450  -14.3740   10.3240 C   0  0  2  0  0  0  0  0  0  0  0  0
  -14.2630  -15.4050   10.2900 C   0  0  0  0  0  0  0  0  0  0  0  0
  -14.2150  -16.3970   11.0260 O   0  0  0  0  0  0  0  0  0  0  0  0
  -11.9480  -14.9250    9.5550 C   0  0  0  0  0  0  0  0  0  0  0  0
  -12.0170  -14.3410   11.9160 H   0  0  0  0  0  0  0  0  0  0  0  0
  -13.4830  -13.5720    9.8940 H   0  0  0  0  0  0  0  0  0  0  0  0
  -12.2350  -15.1820    8.6650 H   0  0  0  0  0  0  0  0  0  0  0  0
  -11.2660  -14.2380    9.4970 H   0  0  0  0  0  0  0  0  0  0  0  0
  -11.5990  -15.6990   10.0260 H   0  0  0  0  0  0  0  0  0  0  0  0
  -15.2530  -15.1530    9.4400 N   0  0  0  0  0  0  0  0  0  0  0  0
  -16.3160  -16.1010    9.1150 C   0  0  1  0  0  0  0  0  0  0  0  0
  -17.6420  -15.7670    9.8620 C   0  0  1  0  0  0  0  0  0  0  0  0
  -17.4620  -15.9600   11.3780 C   0  0  0  0  0  0  0  0  0  0  0  0
  -17.9270  -14.3930    9.5360 O   0  0  0  0  0  0  0  0  0  0  0  0
  -19.3880  -13.7880    9.8980 P   0  0  0  0  0  0  0  0  0  0  0  0
  -19.4330  -12.4950    8.9540 O   0  0  0  0  0  0  0  0  0  0  0  0
  -19.3460  -13.4120   11.3320 O   0  0  0  0  0  0  0  0  0  0  0  0
  -20.5160  -14.8160    9.5430 O   0  0  0  0  0  0  0  0  0  0  0  0
  -16.5370  -16.0930    7.6040 C   0  0  0  0  0  0  0  0  0  0  0  0
  -16.2010  -15.1160    6.9010 O   0  0  0  0  0  0  0  0  0  0  0  0
  -17.1110  -17.1680    7.0990 N   0  0  0  0  0  0  0  0  0  0  0  0
  -17.4190  -17.2420    5.6800 C   0  0  2  0  0  0  0  0  0  0  0  0
  -18.8630  -17.5500    5.3840 C   0  0  0  0  0  0  0  0  0  0  0  0
  -19.6620  -17.9830    6.2300 O   0  0  0  0  0  0  0  0  0  0  0  0
  -16.5490  -18.2970    4.9570 C   0  0  0  0  0  0  0  0  0  0  0  0
  -15.0780  -17.9600    5.1160 C   0  0  0  0  0  0  0  0  0  0  0  0
  -16.8840  -19.7130    5.4730 C   0  0  0  0  0  0  0  0  0  0  0  0
  -19.2570  -17.3950    4.2120 O   0  0  0  0  0  0  0  0  0  0  0  0
  -17.3320  -17.8660    7.5510 H   0  0  0  0  0  0  0  0  0  0  0  0
  -17.2300  -16.3530    5.3420 H   0  0  0  0  0  0  0  0  0  0  0  0
  -16.7430  -18.2890    4.0060 H   0  0  0  0  0  0  0  0  0  0  0  0
  -14.5510  -18.6010    4.6140 H   0  0  0  0  0  0  0  0  0  0  0  0
  -14.9210  -17.0650    4.7760 H   0  0  0  0  0  0  0  0  0  0  0  0
  -14.8440  -18.0020    6.0560 H   0  0  0  0  0  0  0  0  0  0  0  0
  -16.1920  -20.3270    5.1830 H   0  0  0  0  0  0  0  0  0  0  0  0
  -16.9250  -19.6940    6.4420 H   0  0  0  0  0  0  0  0  0  0  0  0
  -17.7410  -19.9860    5.1100 H   0  0  0  0  0  0  0  0  0  0  0  0
  2  1  1  0
  3  2  1  0
  4  3  2  0
  5  2  1  0
  6  5  1  0
  7  6  2  0
  8  6  1  0
  9  7  1  0
 10  8  2  0
 11  9  2  0
 11 10  1  0
  2 12  1  1
 13  5  1  0
 14  5  1  0
 15  7  1  0
 16  8  1  0
 17  9  1  0
 18 10  1  0
 19 11  1  0
 20  3  1  0
 21 20  1  0
 22 21  1  0
 23 22  2  0
 24 21  1  0
 25 24  1  0
 26 25  1  0
 26 20  1  0
 21 27  1  6
 28 24  1  0
 29 24  1  0
 30 25  1  0
 31 25  1  0
 32 26  1  0
 33 26  1  0
 34 22  1  0
 35 34  1  0
 36 35  1  0
 37 36  2  0
 38 35  1  0
 39 34  1  0
 35 40  1  6
 41 38  1  0
 42 38  1  0
 43 38  1  0
 44 36  1  0
 45 44  1  6
 46 45  1  0
 46 47  1  1
 48 46  1  0
 49 48  1  0
 50 49  1  0
 51 49  1  0
 52 49  1  0
 53 45  1  0
 54 53  1  0
 55 53  1  0
 56 55  1  0
 57 56  1  0
 58 57  2  0
 59 56  1  0
 60 59  1  0
 61 59  1  0
 62 57  1  0
 63 55  1  0
 56 64  1  6
 65 59  1  0
 66 60  1  0
 67 60  1  0
 68 60  1  0
 69 61  1  0
 70 61  1  0
 71 61  1  0
M  END
$$$$
1QKU
     RDKit          3D

 20 23  0  0  0  0  0  0  0  0999 V2000
  104.1060   17.2030   24.7750 C   0  0  0  0  0  0  0  0  0  0  0  0
  102.9950   17.8340   25.3700 C   0  0  0  0  0  0  0  0  0  0  0  0
  101.6950   17.3550   25.1200 C   0  0  0  0  0  0  0  0  0  0  0  0
  100.5980   17.9900   25.7040 O   0  0  0  0  0  0  0  0  0  0  0  0
  101.5060   16.2400   24.2740 C   0  0  0  0  0  0  0  0  0  0  0  0
  102.6210   15.5880   23.6600 C   0  0  0  0  0  0  0  0  0  0  0  0
  102.3710   14.3790   22.7350 C   0  0  0  0  0  0  0  0  0  0  0  0
  103.6440   13.7530   22.0860 C   0  0  0  0  0  0  0  0  0  0  0  0
  104.8980   13.8730   22.9530 C   0  0  2  0  0  0  0  0  0  0  0  0
  105.1780   15.3880   23.2610 C   0  0  1  0  0  0  0  0  0  0  0  0
  103.9570   16.0780   23.9180 C   0  0  0  0  0  0  0  0  0  0  0  0
  106.4620   15.4590   24.1250 C   0  0  0  0  0  0  0  0  0  0  0  0
  107.7110   14.8030   23.5080 C   0  0  0  0  0  0  0  0  0  0  0  0
  107.4630   13.3430   23.1240 C   0  0  1  0  0  0  0  0  0  0  0  0
  106.1700   13.2700   22.2420 C   0  0  1  0  0  0  0  0  0  0  0  0
  106.2280   11.8210   21.7920 C   0  0  0  0  0  0  0  0  0  0  0  0
  107.7010   11.7130   21.2630 C   0  0  0  0  0  0  0  0  0  0  0  0
  108.4940   12.7190   22.1350 C   0  0  2  0  0  0  0  0  0  0  0  0
  109.6100   12.0270   22.7460 O   0  0  0  0  0  0  0  0  0  0  0  0
  107.3790   12.4490   24.4190 C   0  0  0  0  0  0  0  0  0  0  0  0
  2  1  1  0
  3  2  1  0
  4  3  1  0
  5  3  1  0
  6  5  1  0
  7  6  1  0
  8  7  1  0
  9  8  1  6
 10  9  1  0
 11  6  1  0
 11 10  1  0
 11  1  1  0
 10 12  1  1
 13 12  1  0
 14 13  1  0
 15 14  1  0
 15  9  1  0
 15 16  1  1
 17 16  1  0
 18 17  1  0
 18 14  1  0
 18 19  1  1
 14 20  1  1
M  END
$$$$
7B9R
     RDKit          3D

 42 43  0  0  0  0  0  0  0  0999 V2000
   12.7430    8.0750   14.5270 N   0  0  0  0  0  0  0  0  0  0  0  0
   13.6310    9.2330   14.5910 C   0  0  2  0  0  0  0  0  0  0  0  0
   12.9850   10.4630   13.9490 C   0  0  0  0  0  0  0  0  0  0  0  0
   12.1610   10.3340   13.0410 O   0  0  0  0  0  0  0  0  0  0  0  0
   14.9830    8.9150   13.9350 C   0  0  0  0  0  0  0  0  0  0  0  0
   14.8730    8.3190   12.5560 C   0  0  0  0  0  0  0  0  0  0  0  0
   14.7980    9.1320   11.4360 C   0  0  0  0  0  0  0  0  0  0  0  0
   14.8600    6.9420   12.3800 C   0  0  0  0  0  0  0  0  0  0  0  0
   14.7010    8.5850   10.1650 C   0  0  0  0  0  0  0  0  0  0  0  0
   14.7630    6.3890   11.1120 C   0  0  0  0  0  0  0  0  0  0  0  0
   14.6850    7.2120   10.0040 C   0  0  0  0  0  0  0  0  0  0  0  0
   13.3500   11.6540   14.4210 N   0  0  0  0  0  0  0  0  0  0  0  0
   12.7830   12.8780   13.8470 C   0  0  2  0  0  0  0  0  0  0  0  0
   13.3850   13.1740   12.4810 C   0  0  0  0  0  0  0  0  0  0  0  0
   14.4430   12.6640   12.1060 O   0  0  0  0  0  0  0  0  0  0  0  0
   13.1780   13.9530   14.8600 C   0  0  0  0  0  0  0  0  0  0  0  0
   14.4620   13.4440   15.4440 C   0  0  0  0  0  0  0  0  0  0  0  0
   14.2950   11.9450   15.5150 C   0  0  0  0  0  0  0  0  0  0  0  0
   12.6860   14.0240   11.7330 N   0  0  0  0  0  0  0  0  0  0  0  0
   13.0970   14.3660   10.3780 C   0  0  2  0  0  0  0  0  0  0  0  0
   14.2330   15.3850   10.3560 C   0  0  0  0  0  0  0  0  0  0  0  0
   14.2020   16.3610   11.1000 O   0  0  0  0  0  0  0  0  0  0  0  0
   11.9080   14.8950    9.5880 C   0  0  0  0  0  0  0  0  0  0  0  0
   15.2320   15.1310    9.5090 N   0  0  0  0  0  0  0  0  0  0  0  0
   16.3020   16.0810    9.2010 C   0  0  1  0  0  0  0  0  0  0  0  0
   17.6160   15.7030    9.9180 C   0  0  1  0  0  0  0  0  0  0  0  0
   17.4770   15.9130   11.4260 C   0  0  0  0  0  0  0  0  0  0  0  0
   17.8620   14.3310    9.5790 O   0  0  0  0  0  0  0  0  0  0  0  0
   19.3180   13.7300    9.9470 P   0  0  0  0  0  0  0  0  0  0  0  0
   19.4520   12.4470    9.0080 O   0  0  0  0  0  0  0  0  0  0  0  0
   19.3590   13.3510   11.3800 O   0  0  0  0  0  0  0  0  0  0  0  0
   20.4600   14.7780    9.5900 O   0  0  0  0  0  0  0  0  0  0  0  0
   16.5120   16.0720    7.6900 C   0  0  0  0  0  0  0  0  0  0  0  0
   16.1480   15.1020    7.0140 O   0  0  0  0  0  0  0  0  0  0  0  0
   17.0840   17.1480    7.1580 N   0  0  0  0  0  0  0  0  0  0  0  0
   17.3890   17.2410    5.7310 C   0  0  2  0  0  0  0  0  0  0  0  0
   18.8420   17.5980    5.4880 C   0  0  0  0  0  0  0  0  0  0  0  0
   19.5560   18.0500    6.3830 O   0  0  0  0  0  0  0  0  0  0  0  0
   16.4790   18.2440    4.9880 C   0  0  0  0  0  0  0  0  0  0  0  0
   15.0400   17.8100    5.0590 C   0  0  0  0  0  0  0  0  0  0  0  0
   16.6600   19.6440    5.5520 C   0  0  0  0  0  0  0  0  0  0  0  0
   19.3310   17.4550    4.3660 O   0  0  0  0  0  0  0  0  0  0  0  0
  2  1  1  6
  3  2  1  0
  4  3  2  0
  5  2  1  0
  6  5  1  0
  7  6  2  0
  8  6  1  0
  9  7  1  0
 10  8  2  0
 11  9  2  0
 11 10  1  0
 12  3  1  0
 13 12  1  0
 13 14  1  6
 15 14  2  0
 16 13  1  0
 17 16  1  0
 18 17  1  0
 18 12  1  0
 19 14  1  0
 20 19  1  0
 21 20  1  0
 22 21  2  0
 20 23  1  6
 24 21  1  0
 25 24  1  6
 26 25  1  0
 26 27  1  1
 28 26  1  0
 29 28  1  0
 30 29  1  0
 31 29  1  0
 32 29  1  0
 33 25  1  0
 34 33  1  0
 35 33  1  0
 36 35  1  1
 37 36  1  0
 38 37  2  0
 39 36  1  0
 40 39  1  0
 41 39  1  0
 42 37  1  0
M  END
$$$$
5TLV
     RDKit          3D

 21 23  0  0  0  0  0  0  0  0999 V2000
   23.8790   -0.2800    4.5960 O   0  0  0  0  0  0  0  0  0  0  0  0
   22.7400   -0.9500    4.7980 C   0  0  0  0  0  0  0  0  0  0  0  0
   22.7740   -2.3900    4.8530 C   0  0  0  0  0  0  0  0  0  0  0  0
   21.5870   -3.0840    5.0640 C   0  0  0  0  0  0  0  0  0  0  0  0
   21.6010   -4.3720    5.1170 F   0  0  0  0  0  0  0  0  0  0  0  0
   21.5270   -0.2560    4.9570 C   0  0  0  0  0  0  0  0  0  0  0  0
   20.3110   -0.9700    5.1680 C   0  0  0  0  0  0  0  0  0  0  0  0
   20.3460   -2.3740    5.2200 C   0  0  0  0  0  0  0  0  0  0  0  0
   19.0340   -3.2000    5.4590 C   0  0  0  0  0  0  0  0  0  0  0  0
   17.8510   -3.2120    4.6420 C   0  0  0  0  0  0  0  0  0  0  0  0
   17.6120   -2.4190    3.3430 C   0  0  0  0  0  0  0  0  0  0  0  0
   16.3820   -1.8540    3.1290 C   0  0  0  0  0  0  0  0  0  0  0  0
   15.4310   -1.9670    4.0210 F   0  0  0  0  0  0  0  0  0  0  0  0
   16.1320   -1.1570    1.9640 C   0  0  0  0  0  0  0  0  0  0  0  0
   17.1160   -1.0400    1.0310 C   0  0  0  0  0  0  0  0  0  0  0  0
   16.8390   -0.3130   -0.1640 O   0  0  0  0  0  0  0  0  0  0  0  0
   18.3810   -1.6190    1.2410 C   0  0  0  0  0  0  0  0  0  0  0  0
   18.6220   -2.3060    2.3870 C   0  0  0  0  0  0  0  0  0  0  0  0
   16.7980   -4.1860    5.2480 C   0  0  0  0  0  0  0  0  0  0  0  0
   17.3090   -4.7760    6.4360 C   0  0  0  0  0  0  0  0  0  0  0  0
   18.8190   -4.2090    6.7070 S   0  0  0  0  0  0  0  0  0  0  0  0
  2  1  1  0
  3  2  1  0
  4  3  1  0
  5  4  1  0
  6  2  1  0
  7  6  1  0
  8  7  1  0
  8  4  1  0
  9  8  1  0
 10  9  1  0
 11 10  1  0
 12 11  1  0
 13 12  1  0
 14 12  1  0
 15 14  1  0
 16 15  1  0
 17 15  1  0
 18 17  1  0
 18 11  1  0
 19 10  1  0
 20 19  1  0
 21 20  1  0
 21  9  1  0
M  END
$$$$
8DU6
     RDKit          3D

 34 40  0  0  0  0  0  0  0  0999 V2000
   -8.0810   -3.9500   15.2180 N   0  0  0  0  0  0  0  0  0  0  0  0
   -8.3580    0.3600   15.7980 C   0  0  0  0  0  0  0  0  0  0  0  0
   -8.2750   -1.1800   15.6830 C   0  0  0  0  0  0  0  0  0  0  0  0
   -7.1610   -1.7910   16.0020 C   0  0  0  0  0  0  0  0  0  0  0  0
   -9.5180   -1.9030   15.2020 C   0  0  0  0  0  0  0  0  0  0  0  0
   -9.4870   -3.4340   15.4350 C   0  0  1  0  0  0  0  0  0  0  0  0
   -7.7610   -5.0750   14.2820 C   0  0  0  0  0  0  0  0  0  0  0  0
  -10.3490   -7.6650   12.7950 C   0  0  0  0  0  0  0  0  0  0  0  0
  -10.4420   -5.5260   11.5390 C   0  0  0  0  0  0  0  0  0  0  0  0
  -10.9290   -4.0290   15.3630 C   0  0  0  0  0  0  0  0  0  0  0  0
   -5.6440   -4.8420   17.3010 C   0  0  0  0  0  0  0  0  0  0  0  0
   -5.2170   -5.4920   18.6280 C   0  0  0  0  0  0  0  0  0  0  0  0
   -5.7900   -5.1230   19.7700 C   0  0  0  0  0  0  0  0  0  0  0  0
   -7.2650   -3.4750   18.6040 C   0  0  0  0  0  0  0  0  0  0  0  0
   -5.2080   -3.9010   22.5070 C   0  0  0  0  0  0  0  0  0  0  0  0
   -5.2500   -4.2350   24.5960 C   0  0  0  0  0  0  0  0  0  0  0  0
   -5.9450   -0.9640   16.4760 C   0  0  0  0  0  0  0  0  0  0  0  0
   -8.8710   -5.7960   13.4470 C   0  0  0  0  0  0  0  0  0  0  0  0
   -9.2540   -7.0410   13.6810 C   0  0  0  0  0  0  0  0  0  0  0  0
  -10.8930   -6.9660   11.8080 C   0  0  0  0  0  0  0  0  0  0  0  0
   -9.5010   -4.9900   12.2980 C   0  0  0  0  0  0  0  0  0  0  0  0
  -10.3370   -3.7760   16.7050 C   0  0  0  0  0  0  0  0  0  0  0  0
   -6.5960   -3.9150   17.2840 C   0  0  0  0  0  0  0  0  0  0  0  0
   -6.0210    0.3490   16.5740 C   0  0  0  0  0  0  0  0  0  0  0  0
   -6.8940   -4.0420   19.7570 C   0  0  0  0  0  0  0  0  0  0  0  0
   -5.8160   -5.1410   22.2330 C   0  0  1  0  0  0  0  0  0  0  0  0
   -5.2920   -5.8810   23.3090 C   0  0  0  0  0  0  0  0  0  0  0  0
   -4.6960   -5.0300   25.8050 C   0  0  0  0  0  0  0  0  0  0  0  0
   -7.3170    1.0600   16.2110 C   0  0  0  0  0  0  0  0  0  0  0  0
   -6.9600   -3.2970   15.9150 C   0  0  1  0  0  0  0  0  0  0  0  0
   -4.7600   -4.6170   23.6400 N   0  0  2  0  0  0  0  0  0  0  0  0
   -6.6300   -5.4070   14.1510 O   0  0  0  0  0  0  0  0  0  0  0  0
   -7.4040    2.4600   16.3140 O   0  0  0  0  0  0  0  0  0  0  0  0
   -5.3430   -5.7690   20.9590 O   0  0  0  0  0  0  0  0  0  0  0  0
  3  2  1  0
  4  3  1  0
  5  3  1  0
  6  5  1  6
  6  1  1  0
  7  1  1  0
 10  6  1  0
 12 11  1  0
 13 12  1  0
 17  4  1  0
 18  7  1  0
 19 18  1  0
 19  8  1  0
 20  9  1  0
 20  8  1  0
 21 18  1  0
 21  9  1  0
 22 10  1  0
 22  6  1  0
 23 14  1  0
 23 11  1  0
 24 17  1  0
 25 14  1  0
 25 13  1  0
 26 15  1  0
 27 26  1  0
 28 16  1  0
 29  2  1  0
 29 24  1  0
 30  4  1  0
 30  1  1  0
 30 23  1  1
 31 26  1  0
 31 27  1  0
 31 16  1  1
 31 15  1  0
 32  7  1  0
 33 29  1  0
 34 13  1  0
 26 34  1  1
M  CHG  1  31   1
M  END
$$$$
5TMR
     RDKit          3D

 21 23  0  0  0  0  0  0  0  0999 V2000
    0.8370    5.5920   20.2990 O   0  0  0  0  0  0  0  0  0  0  0  0
   -0.4630    5.3360   20.5890 C   0  0  0  0  0  0  0  0  0  0  0  0
   -0.9320    5.5460   21.8480 C   0  0  0  0  0  0  0  0  0  0  0  0
   -2.2350    5.2860   22.1360 C   0  0  0  0  0  0  0  0  0  0  0  0
   -1.2600    4.8600   19.6040 C   0  0  0  0  0  0  0  0  0  0  0  0
   -2.5630    4.5820   19.8900 C   0  0  0  0  0  0  0  0  0  0  0  0
   -3.0440    4.7950   21.1530 C   0  0  0  0  0  0  0  0  0  0  0  0
   -4.4930    4.4950   21.4820 C   0  0  1  0  0  0  0  0  0  0  0  0
   -5.0310    3.1120   21.1740 C   0  0  0  0  0  0  0  0  0  0  0  0
   -4.3760    1.9190   21.5020 C   0  0  0  0  0  0  0  0  0  0  0  0
   -4.9270    0.7120   21.1930 C   0  0  0  0  0  0  0  0  0  0  0  0
   -6.0990    0.6320   20.5680 C   0  0  0  0  0  0  0  0  0  0  0  0
   -6.7160   -0.7130   20.2140 C   0  0  0  0  0  0  0  0  0  0  0  0
   -6.7560    1.7270   20.2330 C   0  0  0  0  0  0  0  0  0  0  0  0
   -6.2530    2.9580   20.5210 C   0  0  0  0  0  0  0  0  0  0  0  0
   -5.1770    5.3060   22.2440 C   0  0  1  0  0  0  0  0  0  0  0  0
   -6.2730    4.7460   23.1420 C   0  0  0  0  0  0  0  0  0  0  0  0
   -6.4660    5.6450   24.3320 C   0  0  0  0  0  0  0  0  0  0  0  0
   -6.8040    7.0240   23.8370 C   0  0  0  0  0  0  0  0  0  0  0  0
   -5.6170    7.6780   23.1650 C   0  0  0  0  0  0  0  0  0  0  0  0
   -4.7020    6.7420   22.3920 C   0  0  0  0  0  0  0  0  0  0  0  0
  2  1  1  0
  3  2  1  0
  4  3  1  0
  5  2  1  0
  6  5  1  0
  7  6  1  0
  7  4  1  0
  8  7  1  1
  9  8  1  0
 10  9  1  0
 11 10  1  0
 12 11  1  0
 13 12  1  0
 14 12  1  0
 15 14  1  0
 15  9  1  0
 16  8  1  0
 16 17  1  1
 18 17  1  0
 19 18  1  0
 20 19  1  0
 21 20  1  0
 21 16  1  0
M  END
$$$$
5TM3
     RDKit          3D

 79 79  0  0  0  0  0  0  0  0999 V2000
   30.6030   16.5210    5.9540 N   0  0  0  0  0  0  0  0  0  0  0  0
   29.1870   16.1720    5.9540 C   0  0  2  0  0  0  0  0  0  0  0  0
   28.6760   15.9740    4.5290 C   0  0  0  0  0  0  0  0  0  0  0  0
   28.3100   16.9360    3.8530 O   0  0  0  0  0  0  0  0  0  0  0  0
   28.3700   17.2550    6.6580 C   0  0  0  0  0  0  0  0  0  0  0  0
   26.9710   16.8230    7.0670 C   0  0  0  0  0  0  0  0  0  0  0  0
   26.9550   16.2890    8.4900 C   0  0  0  0  0  0  0  0  0  0  0  0
   25.5360   16.2060    9.0250 C   0  0  0  0  0  0  0  0  0  0  0  0
   25.5070   15.8870   10.4790 N   0  0  0  0  0  0  0  0  0  0  0  0
   28.6560   14.7160    4.0780 N   0  0  0  0  0  0  0  0  0  0  0  0
   28.2110   14.4180    2.7190 C   0  0  2  0  0  0  0  0  0  0  0  0
   26.7410   14.7670    2.5400 C   0  0  0  0  0  0  0  0  0  0  0  0
   26.3260   15.2110    1.4620 O   0  0  0  0  0  0  0  0  0  0  0  0
   28.4870   12.9380    2.3840 C   0  0  2  0  0  0  0  0  0  0  0  0
   29.9870   12.6460    2.4520 C   0  0  0  0  0  0  0  0  0  0  0  0
   27.9450   12.5780    1.0080 C   0  0  0  0  0  0  0  0  0  0  0  0
   30.3630   11.6610    3.5290 C   0  0  0  0  0  0  0  0  0  0  0  0
   25.9330   14.5890    3.5900 N   0  0  0  0  0  0  0  0  0  0  0  0
   24.5100   14.8960    3.4920 C   0  0  2  0  0  0  0  0  0  0  0  0
   24.2810   16.3640    3.1550 C   0  0  0  0  0  0  0  0  0  0  0  0
   23.3610   16.6980    2.3970 O   0  0  0  0  0  0  0  0  0  0  0  0
   23.8030   14.5290    4.7960 C   0  0  0  0  0  0  0  0  0  0  0  0
   22.3070   14.8350    4.8490 C   0  0  0  0  0  0  0  0  0  0  0  0
   21.5900   14.1990    3.6730 C   0  0  0  0  0  0  0  0  0  0  0  0
   21.7150   14.3480    6.1560 C   0  0  0  0  0  0  0  0  0  0  0  0
   25.1030   17.2570    3.7100 N   0  0  0  0  0  0  0  0  0  0  0  0
   25.0200   18.6650    3.3370 C   0  0  2  0  0  0  0  0  0  0  0  0
   25.2270   18.8410    1.8380 C   0  0  0  0  0  0  0  0  0  0  0  0
   24.3790   19.4180    1.1470 O   0  0  0  0  0  0  0  0  0  0  0  0
   26.0510   19.4840    4.1170 C   0  0  0  0  0  0  0  0  0  0  0  0
   25.7020   19.6970    5.5580 C   0  0  0  0  0  0  0  0  0  0  0  0
   26.6350   20.0750    6.5000 N   0  0  0  0  0  0  0  0  0  0  0  0
   24.5240   19.5970    6.2160 C   0  0  0  0  0  0  0  0  0  0  0  0
   26.0470   20.1900    7.6780 C   0  0  0  0  0  0  0  0  0  0  0  0
   24.7660   19.9060    7.5330 N   0  0  0  0  0  0  0  0  0  0  0  0
   26.3410   18.3180    1.3140 N   0  0  0  0  0  0  0  0  0  0  0  0
   26.6870   18.5320   -0.0890 C   0  0  2  0  0  0  0  0  0  0  0  0
   25.6070   17.9980   -1.0210 C   0  0  0  0  0  0  0  0  0  0  0  0
   25.2380   18.6590   -2.0000 O   0  0  0  0  0  0  0  0  0  0  0  0
   28.0320   17.8750   -0.4040 C   0  0  0  0  0  0  0  0  0  0  0  0
   28.5550   18.2040   -1.7920 C   0  0  0  0  0  0  0  0  0  0  0  0
   29.8520   17.4710   -2.1120 C   0  0  0  0  0  0  0  0  0  0  0  0
   29.6200   16.1040   -2.5730 N   0  0  0  0  0  0  0  0  0  0  0  0
   29.9600   15.0150   -1.8920 C   0  0  0  0  0  0  0  0  0  0  0  0
   30.5590   15.1240   -0.7140 N   0  0  0  0  0  0  0  0  0  0  0  0
   29.7080   13.8140   -2.3950 N   0  0  0  0  0  0  0  0  0  0  0  0
   25.0870   16.8020   -0.7370 N   0  0  0  0  0  0  0  0  0  0  0  0
   24.0930   16.2130   -1.6290 C   0  0  2  0  0  0  0  0  0  0  0  0
   22.7940   17.0070   -1.6290 C   0  0  0  0  0  0  0  0  0  0  0  0
   22.0450   16.9710   -2.6120 O   0  0  0  0  0  0  0  0  0  0  0  0
   23.8330   14.7570   -1.2410 C   0  0  0  0  0  0  0  0  0  0  0  0
   25.0410   13.8280   -1.3860 C   0  0  0  0  0  0  0  0  0  0  0  0
   24.6900   12.3950   -1.0120 C   0  0  0  0  0  0  0  0  0  0  0  0
   25.6000   13.8930   -2.8000 C   0  0  0  0  0  0  0  0  0  0  0  0
   22.5130   17.7340   -0.5450 N   0  0  0  0  0  0  0  0  0  0  0  0
   21.3090   18.5550   -0.4860 C   0  0  2  0  0  0  0  0  0  0  0  0
   21.4850   19.8960   -1.1890 C   0  0  0  0  0  0  0  0  0  0  0  0
   20.4980   20.4750   -1.6570 O   0  0  0  0  0  0  0  0  0  0  0  0
   20.8940   18.7800    0.9690 C   0  0  0  0  0  0  0  0  0  0  0  0
   20.1410   17.6380    1.6530 C   0  0  0  0  0  0  0  0  0  0  0  0
   20.0240   17.8950    3.1450 C   0  0  0  0  0  0  0  0  0  0  0  0
   18.7640   17.4710    1.0340 C   0  0  0  0  0  0  0  0  0  0  0  0
   22.7180   20.4050   -1.2720 N   0  0  0  0  0  0  0  0  0  0  0  0
   22.9410   21.7020   -1.9070 C   0  0  2  0  0  0  0  0  0  0  0  0
   22.7260   21.6260   -3.4140 C   0  0  0  0  0  0  0  0  0  0  0  0
   22.2160   22.5740   -4.0220 O   0  0  0  0  0  0  0  0  0  0  0  0
   24.3530   22.2080   -1.6040 C   0  0  0  0  0  0  0  0  0  0  0  0
   24.7640   22.1280   -0.1430 C   0  0  0  0  0  0  0  0  0  0  0  0
   24.8780   23.4840    0.5210 C   0  0  0  0  0  0  0  0  0  0  0  0
   24.0210   24.3490    0.3470 O   0  0  0  0  0  0  0  0  0  0  0  0
   25.9440   23.6760    1.2890 N   0  0  0  0  0  0  0  0  0  0  0  0
   23.1130   20.5120   -4.0290 N   0  0  0  0  0  0  0  0  0  0  0  0
   23.0210   20.3430   -5.4760 C   0  0  2  0  0  0  0  0  0  0  0  0
   21.5810   20.4420   -5.9720 C   0  0  0  0  0  0  0  0  0  0  0  0
   21.2500   21.3200   -6.7690 O   0  0  0  0  0  0  0  0  0  0  0  0
   23.6230   18.9980   -5.8910 C   0  0  0  0  0  0  0  0  0  0  0  0
   25.0820   18.8680   -5.4990 C   0  0  0  0  0  0  0  0  0  0  0  0
   25.5390   19.6460   -4.6370 O   0  0  0  0  0  0  0  0  0  0  0  0
   25.7710   17.9830   -6.0510 O   0  0  0  0  0  0  0  0  0  0  0  0
  2  1  1  6
  3  2  1  0
  4  3  2  0
  5  2  1  0
  6  5  1  0
  7  6  1  0
  8  7  1  0
  9  8  1  0
 10  3  1  0
 11 10  1  1
 12 11  1  0
 13 12  2  0
 14 11  1  0
 15 14  1  0
 14 16  1  6
 17 15  1  0
 18 12  1  0
 19 18  1  0
 20 19  1  0
 21 20  2  0
 19 22  1  1
 23 22  1  0
 24 23  1  0
 25 23  1  0
 26 20  1  0
 27 26  1  0
 28 27  1  0
 29 28  2  0
 27 30  1  1
 31 30  1  0
 32 31  1  0
 33 31  2  0
 34 32  2  0
 35 34  1  0
 35 33  1  0
 36 28  1  0
 37 36  1  0
 38 37  1  0
 39 38  2  0
 37 40  1  6
 41 40  1  0
 42 41  1  0
 43 42  1  0
 44 43  1  0
 45 44  1  0
 46 44  2  0
 47 38  1  0
 48 47  1  0
 49 48  1  0
 50 49  2  0
 48 51  1  1
 52 51  1  0
 53 52  1  0
 54 52  1  0
 55 49  1  0
 56 55  1  0
 57 56  1  0
 58 57  2  0
 56 59  1  1
 60 59  1  0
 61 60  1  0
 62 60  1  0
 63 57  1  0
 64 63  1  0
 65 64  1  0
 66 65  2  0
 64 67  1  6
 68 67  1  0
 69 68  1  0
 70 69  2  0
 71 69  1  0
 72 65  1  0
 73 72  1  0
 74 73  1  0
 75 74  2  0
 73 76  1  1
 77 76  1  0
 78 77  2  0
 79 77  1  0
M  END
$$$$
2JF9
     RDKit          3D

 29 31  0  0  0  0  0  0  0  0999 V2000
   70.9210   37.2450   20.0740 C   0  0  0  0  0  0  0  0  0  0  0  0
   69.7090   37.7940   19.3450 C   0  0  0  0  0  0  0  0  0  0  0  0
   68.8780   36.7120   18.6320 C   0  0  0  0  0  0  0  0  0  0  0  0
   68.6140   35.5140   19.3530 C   0  0  1  0  0  0  0  0  0  0  0  0
   69.1930   34.3200   18.8880 C   0  0  0  0  0  0  0  0  0  0  0  0
   69.0340   33.0960   19.5440 C   0  0  0  0  0  0  0  0  0  0  0  0
   68.3130   33.0550   20.7340 C   0  0  0  0  0  0  0  0  0  0  0  0
   67.7530   34.2440   21.2200 C   0  0  0  0  0  0  0  0  0  0  0  0
   67.9100   35.4580   20.5500 C   0  0  0  0  0  0  0  0  0  0  0  0
   68.4500   36.9030   17.3000 C   0  0  1  0  0  0  0  0  0  0  0  0
   68.7790   38.0140   16.4990 C   0  0  2  0  0  0  0  0  0  0  0  0
   67.8240   38.7310   15.7760 C   0  0  0  0  0  0  0  0  0  0  0  0
   68.1840   39.7730   14.9330 C   0  0  0  0  0  0  0  0  0  0  0  0
   69.5220   40.0840   14.7300 C   0  0  0  0  0  0  0  0  0  0  0  0
   69.8560   41.0950   13.8790 O   0  0  0  0  0  0  0  0  0  0  0  0
   70.4820   39.3660   15.4010 C   0  0  0  0  0  0  0  0  0  0  0  0
   70.1170   38.3310   16.2680 C   0  0  0  0  0  0  0  0  0  0  0  0
   67.6750   35.9210   16.6260 C   0  0  0  0  0  0  0  0  0  0  0  0
   68.1010   35.3490   15.4330 C   0  0  0  0  0  0  0  0  0  0  0  0
   67.3470   34.3970   14.7730 C   0  0  0  0  0  0  0  0  0  0  0  0
   66.1070   34.0040   15.2490 C   0  0  0  0  0  0  0  0  0  0  0  0
   65.4460   33.0290   14.5450 O   0  0  0  0  0  0  0  0  0  0  0  0
   64.0700   33.0510   14.3440 C   0  0  0  0  0  0  0  0  0  0  0  0
   63.7520   31.7290   13.6480 C   0  0  0  0  0  0  0  0  0  0  0  0
   63.6830   31.8900   12.1810 N   0  0  0  0  0  0  0  0  0  0  0  0
   65.0310   31.9480   11.6040 C   0  0  0  0  0  0  0  0  0  0  0  0
   62.9710   30.7160   11.6250 C   0  0  0  0  0  0  0  0  0  0  0  0
   65.6360   34.5760   16.4320 C   0  0  0  0  0  0  0  0  0  0  0  0
   66.4130   35.5300   17.1120 C   0  0  0  0  0  0  0  0  0  0  0  0
  2  1  1  0
  3  2  1  0
  4  3  1  1
  5  4  1  0
  6  5  1  0
  7  6  1  0
  8  7  1  0
  9  8  1  0
  9  4  1  0
 10  3  1  6
 11 10  1  0
 11 12  1  6
 13 12  1  0
 14 13  1  0
 15 14  1  0
 16 14  1  0
 17 11  1  0
 17 16  1  0
 18 10  1  0
 19 18  1  0
 20 19  1  0
 21 20  1  0
 22 21  1  0
 23 22  1  0
 24 23  1  0
 25 24  1  0
 26 25  1  0
 27 25  1  0
 28 21  1  0
 29 28  1  0
 29 18  1  0
M  END
$$$$
8ARW
     RDKit          3D

 42 43  0  0  0  0  0  0  0  0999 V2000
  -12.4720    8.0230  -14.9040 N   0  0  0  0  0  0  0  0  0  0  0  0
  -13.5360    9.0600  -14.6820 C   0  0  2  0  0  0  0  0  0  0  0  0
  -13.0110   10.3010  -13.9740 C   0  0  0  0  0  0  0  0  0  0  0  0
  -12.2300   10.1990  -13.0250 O   0  0  0  0  0  0  0  0  0  0  0  0
  -14.7220    8.4940  -13.8750 C   0  0  0  0  0  0  0  0  0  0  0  0
  -15.3740    7.3390  -14.5380 C   0  0  0  0  0  0  0  0  0  0  0  0
  -16.3750    7.5510  -15.4760 C   0  0  0  0  0  0  0  0  0  0  0  0
  -14.9840    6.0290  -14.2340 C   0  0  0  0  0  0  0  0  0  0  0  0
  -16.9990    6.4730  -16.0920 C   0  0  0  0  0  0  0  0  0  0  0  0
  -15.6080    4.9500  -14.8440 C   0  0  0  0  0  0  0  0  0  0  0  0
  -16.6140    5.1730  -15.7680 C   0  0  0  0  0  0  0  0  0  0  0  0
  -13.4430   11.5090  -14.3940 N   0  0  0  0  0  0  0  0  0  0  0  0
  -12.9190   12.7340  -13.8000 C   0  0  2  0  0  0  0  0  0  0  0  0
  -13.5140   13.0610  -12.4150 C   0  0  0  0  0  0  0  0  0  0  0  0
  -14.5820   12.5840  -12.0550 O   0  0  0  0  0  0  0  0  0  0  0  0
  -13.2670   13.7730  -14.8630 C   0  0  0  0  0  0  0  0  0  0  0  0
  -14.5660   13.2720  -15.4520 C   0  0  0  0  0  0  0  0  0  0  0  0
  -14.4300   11.7710  -15.4590 C   0  0  0  0  0  0  0  0  0  0  0  0
  -12.7860   13.8790  -11.6610 N   0  0  0  0  0  0  0  0  0  0  0  0
  -13.1400   14.2800  -10.3280 C   0  0  2  0  0  0  0  0  0  0  0  0
  -14.2420   15.3240  -10.3610 C   0  0  0  0  0  0  0  0  0  0  0  0
  -14.1830   16.3000  -11.1140 O   0  0  0  0  0  0  0  0  0  0  0  0
  -11.9480   14.8780   -9.6250 C   0  0  0  0  0  0  0  0  0  0  0  0
  -15.2480   15.0740   -9.5190 N   0  0  0  0  0  0  0  0  0  0  0  0
  -16.3210   16.0430   -9.1720 C   0  0  1  0  0  0  0  0  0  0  0  0
  -17.6260   15.7430   -9.9310 C   0  0  1  0  0  0  0  0  0  0  0  0
  -17.4770   15.8830  -11.4280 C   0  0  0  0  0  0  0  0  0  0  0  0
  -17.9540   14.3660   -9.5920 O   0  0  0  0  0  0  0  0  0  0  0  0
  -19.3700   13.7010   -9.9680 P   0  0  0  0  0  0  0  0  0  0  0  0
  -19.3670   13.3100  -11.4110 O   0  0  0  0  0  0  0  0  0  0  0  0
  -19.4130   12.4980   -9.0470 O   0  0  0  0  0  0  0  0  0  0  0  0
  -20.4330   14.7380   -9.6630 O   0  0  0  0  0  0  0  0  0  0  0  0
  -16.5250   16.0300   -7.6640 C   0  0  0  0  0  0  0  0  0  0  0  0
  -16.1330   15.0440   -7.0120 O   0  0  0  0  0  0  0  0  0  0  0  0
  -17.1060   17.1000   -7.1410 N   0  0  0  0  0  0  0  0  0  0  0  0
  -17.4220   17.1780   -5.7210 C   0  0  2  0  0  0  0  0  0  0  0  0
  -18.8550   17.5060   -5.4460 C   0  0  0  0  0  0  0  0  0  0  0  0
  -19.6040   17.9290   -6.3360 O   0  0  0  0  0  0  0  0  0  0  0  0
  -16.5700   18.2420   -5.0090 C   0  0  0  0  0  0  0  0  0  0  0  0
  -15.1390   17.8280   -5.0730 C   0  0  0  0  0  0  0  0  0  0  0  0
  -16.8140   19.6210   -5.6030 C   0  0  0  0  0  0  0  0  0  0  0  0
  -19.2510   17.3090   -4.2780 O   0  0  0  0  0  0  0  0  0  0  0  0
  2  1  1  1
  3  2  1  0
  4  3  2  0
  5  2  1  0
  6  5  1  0
  7  6  2  0
  8  6  1  0
  9  7  1  0
 10  8  2  0
 11  9  2  0
 11 10  1  0
 12  3  1  0
 13 12  1  0
 13 14  1  1
 15 14  2  0
 16 13  1  0
 17 16  1  0
 18 17  1  0
 18 12  1  0
 19 14  1  0
 20 19  1  0
 21 20  1  0
 22 21  2  0
 20 23  1  6
 24 21  1  0
 25 24  1  1
 26 25  1  0
 26 27  1  6
 28 26  1  0
 29 28  1  0
 30 29  1  0
 31 29  1  0
 32 29  1  0
 33 25  1  0
 34 33  1  0
 35 33  1  0
 36 35  1  6
 37 36  1  0
 38 37  2  0
 39 36  1  0
 40 39  1  0
 41 39  1  0
 42 37  1  0
M  END
$$$$
9I71
     RDKit          3D

 42 43  0  0  0  0  0  0  0  0999 V2000
   28.2880   -8.0900   14.5200 N   0  0  0  0  0  0  0  0  0  0  0  0
   27.4300   -9.2670   14.5430 C   0  0  2  0  0  0  0  0  0  0  0  0
   28.1110  -10.4810   13.9170 C   0  0  0  0  0  0  0  0  0  0  0  0
   28.9680  -10.3540   13.0430 O   0  0  0  0  0  0  0  0  0  0  0  0
   26.0890   -8.9960   13.8240 C   0  0  0  0  0  0  0  0  0  0  0  0
   26.1820   -8.2960   12.4920 C   0  0  0  0  0  0  0  0  0  0  0  0
   26.2440   -6.9120   12.4210 C   0  0  0  0  0  0  0  0  0  0  0  0
   26.2200   -9.0190   11.3100 C   0  0  0  0  0  0  0  0  0  0  0  0
   26.3300   -6.2660   11.1920 C   0  0  0  0  0  0  0  0  0  0  0  0
   26.3110   -8.3720   10.0850 C   0  0  0  0  0  0  0  0  0  0  0  0
   26.3630   -6.9980   10.0320 C   0  0  0  0  0  0  0  0  0  0  0  0
   27.7530  -11.7090   14.3450 N   0  0  0  0  0  0  0  0  0  0  0  0
   28.3130  -12.9130   13.7470 C   0  0  2  0  0  0  0  0  0  0  0  0
   27.7300  -13.2390   12.3740 C   0  0  0  0  0  0  0  0  0  0  0  0
   26.6660  -12.7430   11.9930 O   0  0  0  0  0  0  0  0  0  0  0  0
   27.9540  -13.9810   14.7590 C   0  0  0  0  0  0  0  0  0  0  0  0
   26.6720  -13.5270   15.3250 C   0  0  0  0  0  0  0  0  0  0  0  0
   26.7730  -12.0160   15.3990 C   0  0  0  0  0  0  0  0  0  0  0  0
   28.4520  -14.0670   11.6310 N   0  0  0  0  0  0  0  0  0  0  0  0
   28.0250  -14.4500   10.2950 C   0  0  2  0  0  0  0  0  0  0  0  0
   26.8830  -15.4660   10.2800 C   0  0  0  0  0  0  0  0  0  0  0  0
   26.9240  -16.4590   11.0010 O   0  0  0  0  0  0  0  0  0  0  0  0
   29.2090  -15.0290    9.5310 C   0  0  0  0  0  0  0  0  0  0  0  0
   25.8720  -15.1970    9.4400 N   0  0  0  0  0  0  0  0  0  0  0  0
   24.8140  -16.1280    9.1010 C   0  0  1  0  0  0  0  0  0  0  0  0
   23.5060  -15.8100    9.8430 C   0  0  1  0  0  0  0  0  0  0  0  0
   23.6700  -15.9570   11.3430 C   0  0  0  0  0  0  0  0  0  0  0  0
   23.1830  -14.4200    9.5090 O   0  0  0  0  0  0  0  0  0  0  0  0
   21.7660  -13.7580    9.8950 P   0  0  0  0  0  0  0  0  0  0  0  0
   21.7610  -13.4210   11.3760 O   0  0  0  0  0  0  0  0  0  0  0  0
   21.7060  -12.5280    9.0230 O   0  0  0  0  0  0  0  0  0  0  0  0
   20.7110  -14.7630    9.5760 O   0  0  0  0  0  0  0  0  0  0  0  0
   24.6280  -16.1100    7.5920 C   0  0  0  0  0  0  0  0  0  0  0  0
   25.0270  -15.1420    6.9410 O   0  0  0  0  0  0  0  0  0  0  0  0
   23.9970  -17.1670    7.0700 N   0  0  0  0  0  0  0  0  0  0  0  0
   23.7310  -17.2850    5.6450 C   0  0  2  0  0  0  0  0  0  0  0  0
   22.2770  -17.5780    5.3340 C   0  0  0  0  0  0  0  0  0  0  0  0
   21.4790  -17.9530    6.2330 O   0  0  0  0  0  0  0  0  0  0  0  0
   24.6390  -18.3600    4.9900 C   0  0  0  0  0  0  0  0  0  0  0  0
   26.1000  -17.9710    5.0870 C   0  0  0  0  0  0  0  0  0  0  0  0
   24.3890  -19.7400    5.5840 C   0  0  0  0  0  0  0  0  0  0  0  0
   21.8820  -17.4420    4.1370 O   0  0  0  0  0  0  0  0  0  0  0  0
  2  1  1  6
  3  2  1  0
  4  3  2  0
  5  2  1  0
  6  5  1  0
  7  6  2  0
  8  6  1  0
  9  7  1  0
 10  8  2  0
 11 10  1  0
 11  9  2  0
 12  3  1  0
 13 12  1  0
 13 14  1  6
 15 14  2  0
 16 13  1  0
 17 16  1  0
 18 17  1  0
 18 12  1  0
 19 14  1  0
 20 19  1  0
 21 20  1  0
 22 21  2  0
 20 23  1  1
 24 21  1  0
 25 24  1  6
 26 25  1  0
 26 27  1  1
 28 26  1  0
 29 28  1  0
 30 29  1  0
 31 29  1  0
 32 29  1  0
 33 25  1  0
 34 33  1  0
 35 33  1  0
 36 35  1  1
 37 36  1  0
 38 37  2  0
 39 36  1  0
 40 39  1  0
 41 39  1  0
 42 37  1  0
M  END
$$$$
9I6T
     RDKit          3D

 42 43  0  0  0  0  0  0  0  0999 V2000
   28.3410   -8.1880   14.7240 N   0  0  0  0  0  0  0  0  0  0  0  0
   27.3980   -9.3050   14.6740 C   0  0  2  0  0  0  0  0  0  0  0  0
   28.0270  -10.5230   13.9980 C   0  0  0  0  0  0  0  0  0  0  0  0
   28.8580  -10.3960   13.1010 O   0  0  0  0  0  0  0  0  0  0  0  0
   26.1020   -8.8810   13.9620 C   0  0  0  0  0  0  0  0  0  0  0  0
   25.4390   -7.6990   14.6240 C   0  0  0  0  0  0  0  0  0  0  0  0
   24.6590   -7.8640   15.7550 C   0  0  0  0  0  0  0  0  0  0  0  0
   25.6390   -6.4150   14.1450 C   0  0  0  0  0  0  0  0  0  0  0  0
   24.0690   -6.7690   16.3770 C   0  0  0  0  0  0  0  0  0  0  0  0
   25.0480   -5.3250   14.7690 C   0  0  0  0  0  0  0  0  0  0  0  0
   24.2690   -5.5090   15.8810 C   0  0  0  0  0  0  0  0  0  0  0  0
   27.6400  -11.7510   14.4050 N   0  0  0  0  0  0  0  0  0  0  0  0
   28.1940  -12.9590   13.8090 C   0  0  2  0  0  0  0  0  0  0  0  0
   27.6160  -13.2830   12.4300 C   0  0  0  0  0  0  0  0  0  0  0  0
   26.5600  -12.7780   12.0500 O   0  0  0  0  0  0  0  0  0  0  0  0
   27.8370  -14.0180   14.8300 C   0  0  0  0  0  0  0  0  0  0  0  0
   26.5470  -13.5370   15.3910 C   0  0  0  0  0  0  0  0  0  0  0  0
   26.6450  -12.0430   15.4510 C   0  0  0  0  0  0  0  0  0  0  0  0
   28.3210  -14.1360   11.6890 N   0  0  0  0  0  0  0  0  0  0  0  0
   27.9150  -14.4950   10.3410 C   0  0  2  0  0  0  0  0  0  0  0  0
   26.7880  -15.5190   10.3370 C   0  0  0  0  0  0  0  0  0  0  0  0
   26.8440  -16.5050   11.0720 O   0  0  0  0  0  0  0  0  0  0  0  0
   29.1070  -15.0560    9.5860 C   0  0  0  0  0  0  0  0  0  0  0  0
   25.8000  -15.2800    9.4640 N   0  0  0  0  0  0  0  0  0  0  0  0
   24.7380  -16.2290    9.1660 C   0  0  1  0  0  0  0  0  0  0  0  0
   23.4410  -15.8940    9.9150 C   0  0  1  0  0  0  0  0  0  0  0  0
   23.5900  -16.0440   11.4190 C   0  0  0  0  0  0  0  0  0  0  0  0
   23.1130  -14.5080    9.5650 O   0  0  0  0  0  0  0  0  0  0  0  0
   21.6840  -13.8510    9.9310 P   0  0  0  0  0  0  0  0  0  0  0  0
   21.6810  -13.4910   11.4130 O   0  0  0  0  0  0  0  0  0  0  0  0
   21.6270  -12.6380    9.0320 O   0  0  0  0  0  0  0  0  0  0  0  0
   20.6390  -14.8840    9.6470 O   0  0  0  0  0  0  0  0  0  0  0  0
   24.5190  -16.2470    7.6570 C   0  0  0  0  0  0  0  0  0  0  0  0
   24.8880  -15.2830    6.9850 O   0  0  0  0  0  0  0  0  0  0  0  0
   23.9110  -17.3310    7.1610 N   0  0  0  0  0  0  0  0  0  0  0  0
   23.6200  -17.4660    5.7340 C   0  0  2  0  0  0  0  0  0  0  0  0
   22.1770  -17.7960    5.4390 C   0  0  0  0  0  0  0  0  0  0  0  0
   21.4270  -18.2440    6.3300 O   0  0  0  0  0  0  0  0  0  0  0  0
   24.4990  -18.5200    5.0510 C   0  0  0  0  0  0  0  0  0  0  0  0
   25.9370  -18.0940    5.0890 C   0  0  0  0  0  0  0  0  0  0  0  0
   24.3020  -19.9020    5.6370 C   0  0  0  0  0  0  0  0  0  0  0  0
   21.7750  -17.6410    4.2660 O   0  0  0  0  0  0  0  0  0  0  0  0
  2  1  1  6
  3  2  1  0
  4  3  2  0
  5  2  1  0
  6  5  1  0
  7  6  2  0
  8  6  1  0
  9  7  1  0
 10  8  2  0
 11  9  2  0
 11 10  1  0
 12  3  1  0
 13 12  1  0
 13 14  1  6
 15 14  2  0
 16 13  1  0
 17 16  1  0
 18 17  1  0
 18 12  1  0
 19 14  1  0
 20 19  1  0
 21 20  1  0
 22 21  2  0
 20 23  1  6
 24 21  1  0
 25 24  1  6
 26 25  1  0
 26 27  1  1
 28 26  1  0
 29 28  1  0
 30 29  1  0
 31 29  1  0
 32 29  1  0
 33 25  1  0
 34 33  1  0
 35 33  1  0
 36 35  1  1
 37 36  1  0
 38 37  2  0
 39 36  1  0
 40 39  1  0
 41 39  1  0
 42 37  1  0
M  END
$$$$
7NDO
     RDKit          3D

 62 66  0  0  0  0  0  0  0  0999 V2000
   32.7270   14.0340   32.0550 C   0  0  0  0  0  0  0  0  0  0  0  0
   31.8510   13.9950   33.1360 C   0  0  0  0  0  0  0  0  0  0  0  0
   30.5130   13.5910   32.9270 C   0  0  0  0  0  0  0  0  0  0  0  0
   29.6500   13.5590   34.0060 O   0  0  0  0  0  0  0  0  0  0  0  0
   30.0370   13.2250   31.6700 C   0  0  0  0  0  0  0  0  0  0  0  0
   30.9310   13.2670   30.5920 C   0  0  0  0  0  0  0  0  0  0  0  0
   30.6470   12.8700   28.9060 S   0  0  0  0  0  0  0  0  0  0  0  0
   32.2890   13.2300   28.4370 C   0  0  0  0  0  0  0  0  0  0  0  0
   32.7860   13.1110   27.0350 C   0  0  0  0  0  0  0  0  0  0  0  0
   32.0440   13.6420   25.9800 C   0  0  0  0  0  0  0  0  0  0  0  0
   32.4860   13.5450   24.6550 C   0  0  0  0  0  0  0  0  0  0  0  0
   33.6960   12.9000   24.3840 C   0  0  0  0  0  0  0  0  0  0  0  0
   34.1430   12.7970   23.0870 O   0  0  0  0  0  0  0  0  0  0  0  0
   34.4580   12.3590   25.4150 C   0  0  0  0  0  0  0  0  0  0  0  0
   34.0020   12.4660   26.7350 C   0  0  0  0  0  0  0  0  0  0  0  0
   32.2670   13.6670   30.7830 C   0  0  0  0  0  0  0  0  0  0  0  0
   33.0120   13.6390   29.5430 C   0  0  0  0  0  0  0  0  0  0  0  0
   34.4740   14.0310   29.5280 C   0  0  0  0  0  0  0  0  0  0  0  0
   34.8260   15.1200   29.1220 O   0  0  0  0  0  0  0  0  0  0  0  0
   35.4490   13.0030   30.0320 C   0  0  0  0  0  0  0  0  0  0  0  0
   36.8250   13.3350   30.0760 C   0  0  0  0  0  0  0  0  0  0  0  0
   37.7750   12.4130   30.5370 C   0  0  0  0  0  0  0  0  0  0  0  0
   37.3110   11.1420   30.9600 C   0  0  0  0  0  0  0  0  0  0  0  0
   35.9340   10.8090   30.9160 C   0  0  0  0  0  0  0  0  0  0  0  0
   34.9980   11.7410   30.4500 C   0  0  0  0  0  0  0  0  0  0  0  0
   38.2670   10.1980   31.4340 O   0  0  0  0  0  0  0  0  0  0  0  0
   38.9540   10.7420   32.5840 C   0  0  2  0  0  0  0  0  0  0  0  0
   40.0460    9.7540   33.1160 C   0  0  2  0  0  0  0  0  0  0  0  0
   39.4940    8.3870   33.5910 N   0  0  2  0  0  0  0  0  0  0  0  0
   38.1510    8.5900   34.2510 C   0  0  2  0  0  0  0  0  0  0  0  0
   37.6670    7.2920   34.8920 C   0  0  1  0  0  0  0  0  0  0  0  0
   38.6920    6.7800   35.9110 C   0  0  2  0  0  0  0  0  0  0  0  0
   40.0200    6.5490   35.1940 C   0  0  1  0  0  0  0  0  0  0  0  0
   40.4790    7.9050   34.6250 C   0  0  1  0  0  0  0  0  0  0  0  0
   33.6090   14.3000   32.1810 H   0  0  0  0  0  0  0  0  0  0  0  0
   32.1370   14.2320   33.9890 H   0  0  0  0  0  0  0  0  0  0  0  0
   29.8070   12.8270   34.4090 H   0  0  0  0  0  0  0  0  0  0  0  0
   29.1490   12.9650   31.5780 H   0  0  0  0  0  0  0  0  0  0  0  0
   31.2360   14.0720   26.1470 H   0  0  0  0  0  0  0  0  0  0  0  0
   31.9900   13.9010   23.9530 H   0  0  0  0  0  0  0  0  0  0  0  0
   34.2910   13.5930   22.8290 H   0  0  0  0  0  0  0  0  0  0  0  0
   35.2600   11.9340   25.2120 H   0  0  0  0  0  0  0  0  0  0  0  0
   34.5300   12.0970   27.4060 H   0  0  0  0  0  0  0  0  0  0  0  0
   37.1010   14.1770   29.7950 H   0  0  0  0  0  0  0  0  0  0  0  0
   38.6790   12.6300   30.5640 H   0  0  0  0  0  0  0  0  0  0  0  0
   35.6250    9.9760   31.1910 H   0  0  0  0  0  0  0  0  0  0  0  0
   34.1040   11.4850   30.4370 H   0  0  0  0  0  0  0  0  0  0  0  0
   38.3110   10.9280   33.2860 H   0  0  0  0  0  0  0  0  0  0  0  0
   39.3670   11.5870   32.3440 H   0  0  0  0  0  0  0  0  0  0  0  0
   40.5050   10.2340   33.8230 H   0  0  0  0  0  0  0  0  0  0  0  0
   40.6860    9.6650   32.3930 H   0  0  0  0  0  0  0  0  0  0  0  0
   37.4940    8.8990   33.6090 H   0  0  0  0  0  0  0  0  0  0  0  0
   38.2000    9.2860   34.9250 H   0  0  0  0  0  0  0  0  0  0  0  0
   36.8050    7.4510   35.3060 H   0  0  0  0  0  0  0  0  0  0  0  0
   37.5070    6.6390   34.1930 H   0  0  0  0  0  0  0  0  0  0  0  0
   38.3820    5.9630   36.3320 H   0  0  0  0  0  0  0  0  0  0  0  0
   38.8000    7.4120   36.6390 H   0  0  0  0  0  0  0  0  0  0  0  0
   40.6980    6.1930   35.7900 H   0  0  0  0  0  0  0  0  0  0  0  0
   39.9390    5.9000   34.4780 H   0  0  0  0  0  0  0  0  0  0  0  0
   41.3650    7.8400   34.2370 H   0  0  0  0  0  0  0  0  0  0  0  0
   40.5720    8.5660   35.3300 H   0  0  0  0  0  0  0  0  0  0  0  0
   39.3710    7.8260   32.9110 H   0  0  0  0  0  0  0  0  0  0  0  0
  2  1  1  0
  3  2  1  0
  4  3  1  0
  5  3  1  0
  6  5  1  0
  7  6  1  0
  8  7  1  0
  9  8  1  0
 10  9  1  0
 11 10  1  0
 12 11  1  0
 13 12  1  0
 14 12  1  0
 15 14  1  0
 15  9  1  0
 16  6  1  0
 16  1  1  0
 17 16  1  0
 17  8  1  0
 18 17  1  0
 19 18  1  0
 20 18  1  0
 21 20  1  0
 22 21  1  0
 23 22  1  0
 24 23  1  0
 25 24  1  0
 25 20  1  0
 26 23  1  0
 27 26  1  0
 28 27  1  0
 29 28  1  0
 30 29  1  0
 31 30  1  0
 32 31  1  0
 33 32  1  0
 34 33  1  0
 34 29  1  0
 35  1  1  0
 36  2  1  0
 37  4  1  0
 38  5  1  0
 39 10  1  0
 40 11  1  0
 41 13  1  0
 42 14  1  0
 43 15  1  0
 44 21  1  0
 45 22  1  0
 46 24  1  0
 47 25  1  0
 27 48  1  1
 49 27  1  0
 28 50  1  1
 51 28  1  0
 30 52  1  6
 53 30  1  0
 31 54  1  1
 55 31  1  0
 32 56  1  1
 57 32  1  0
 33 58  1  1
 59 33  1  0
 34 60  1  6
 61 34  1  0
 29 62  1  6
M  CHG  1  29   1
M  END
$$$$
1ZKY
     RDKit          3D

 79 79  0  0  0  0  0  0  0  0999 V2000
  -38.0840   17.5800   22.4710 N   0  0  0  0  0  0  0  0  0  0  0  0
  -37.2760   16.3260   22.3570 C   0  0  2  0  0  0  0  0  0  0  0  0
  -36.8360   15.7860   23.7290 C   0  0  0  0  0  0  0  0  0  0  0  0
  -36.1580   16.4710   24.5070 O   0  0  0  0  0  0  0  0  0  0  0  0
  -36.0740   16.5550   21.4440 C   0  0  0  0  0  0  0  0  0  0  0  0
  -35.2930   15.3020   21.0960 C   0  0  0  0  0  0  0  0  0  0  0  0
  -34.2560   15.5750   19.9980 C   0  0  0  0  0  0  0  0  0  0  0  0
  -34.9180   15.7340   18.6280 C   0  0  0  0  0  0  0  0  0  0  0  0
  -33.9150   15.8670   17.5270 N   0  0  0  0  0  0  0  0  0  0  0  0
  -37.2430   14.5510   24.0130 N   0  0  0  0  0  0  0  0  0  0  0  0
  -36.9680   13.9090   25.2990 C   0  0  2  0  0  0  0  0  0  0  0  0
  -35.4650   13.8070   25.5770 C   0  0  0  0  0  0  0  0  0  0  0  0
  -35.0130   14.1420   26.6640 O   0  0  0  0  0  0  0  0  0  0  0  0
  -37.6150   12.4940   25.3810 C   0  0  2  0  0  0  0  0  0  0  0  0
  -39.1200   12.5880   25.6470 C   0  0  0  0  0  0  0  0  0  0  0  0
  -36.9980   11.6870   26.5020 C   0  0  0  0  0  0  0  0  0  0  0  0
  -39.9020   13.2670   24.5680 C   0  0  0  0  0  0  0  0  0  0  0  0
  -34.6970   13.3470   24.5910 N   0  0  0  0  0  0  0  0  0  0  0  0
  -33.2570   13.1850   24.7620 C   0  0  2  0  0  0  0  0  0  0  0  0
  -32.6680   14.5190   25.2050 C   0  0  0  0  0  0  0  0  0  0  0  0
  -31.9290   14.5910   26.1890 O   0  0  0  0  0  0  0  0  0  0  0  0
  -32.5910   12.7050   23.4610 C   0  0  0  0  0  0  0  0  0  0  0  0
  -31.0530   12.6480   23.4470 C   0  0  0  0  0  0  0  0  0  0  0  0
  -30.5270   11.7700   24.5790 C   0  0  0  0  0  0  0  0  0  0  0  0
  -30.5120   12.1560   22.0960 C   0  0  0  0  0  0  0  0  0  0  0  0
  -33.0350   15.5710   24.4820 N   0  0  0  0  0  0  0  0  0  0  0  0
  -32.5970   16.9340   24.7880 C   0  0  2  0  0  0  0  0  0  0  0  0
  -32.8120   17.2710   26.2750 C   0  0  0  0  0  0  0  0  0  0  0  0
  -31.8840   17.6960   26.9680 O   0  0  0  0  0  0  0  0  0  0  0  0
  -33.3400   17.9060   23.8640 C   0  0  0  0  0  0  0  0  0  0  0  0
  -32.9360   19.3370   24.0130 C   0  0  0  0  0  0  0  0  0  0  0  0
  -33.3100   20.1080   25.0970 N   0  0  0  0  0  0  0  0  0  0  0  0
  -32.2280   20.1530   23.1930 C   0  0  0  0  0  0  0  0  0  0  0  0
  -32.8350   21.3330   24.9460 C   0  0  0  0  0  0  0  0  0  0  0  0
  -32.1740   21.3860   23.7990 N   0  0  0  0  0  0  0  0  0  0  0  0
  -34.0210   17.0310   26.7780 N   0  0  0  0  0  0  0  0  0  0  0  0
  -34.3410   17.3670   28.1690 C   0  0  2  0  0  0  0  0  0  0  0  0
  -33.6240   16.4770   29.1910 C   0  0  0  0  0  0  0  0  0  0  0  0
  -33.1410   16.9600   30.2180 O   0  0  0  0  0  0  0  0  0  0  0  0
  -35.8540   17.3370   28.3950 C   0  0  0  0  0  0  0  0  0  0  0  0
  -36.2540   17.5770   29.8440 C   0  0  0  0  0  0  0  0  0  0  0  0
  -37.6480   18.1250   29.9270 C   0  0  0  0  0  0  0  0  0  0  0  0
  -37.9430   18.7140   31.2300 N   0  0  0  0  0  0  0  0  0  0  0  0
  -39.0430   19.4120   31.4900 C   0  0  0  0  0  0  0  0  0  0  0  0
  -39.9360   19.6190   30.5260 N   0  0  0  0  0  0  0  0  0  0  0  0
  -39.2470   19.9120   32.7040 N   0  0  0  0  0  0  0  0  0  0  0  0
  -33.5520   15.1810   28.8990 N   0  0  0  0  0  0  0  0  0  0  0  0
  -32.8450   14.2280   29.7400 C   0  0  2  0  0  0  0  0  0  0  0  0
  -31.3720   14.5980   29.8690 C   0  0  0  0  0  0  0  0  0  0  0  0
  -30.7770   14.4250   30.9280 O   0  0  0  0  0  0  0  0  0  0  0  0
  -32.9630   12.8130   29.1440 C   0  0  0  0  0  0  0  0  0  0  0  0
  -34.3550   12.1730   29.2040 C   0  0  0  0  0  0  0  0  0  0  0  0
  -34.3660   10.7860   28.5540 C   0  0  0  0  0  0  0  0  0  0  0  0
  -34.8590   12.0940   30.6310 C   0  0  0  0  0  0  0  0  0  0  0  0
  -30.7830   15.0880   28.7730 N   0  0  0  0  0  0  0  0  0  0  0  0
  -29.3800   15.4920   28.7690 C   0  0  2  0  0  0  0  0  0  0  0  0
  -29.0850   16.6980   29.6780 C   0  0  0  0  0  0  0  0  0  0  0  0
  -28.0370   16.7570   30.3180 O   0  0  0  0  0  0  0  0  0  0  0  0
  -28.9100   15.7700   27.3420 C   0  0  0  0  0  0  0  0  0  0  0  0
  -28.4560   14.5320   26.5680 C   0  0  0  0  0  0  0  0  0  0  0  0
  -28.3660   14.8240   25.1020 C   0  0  0  0  0  0  0  0  0  0  0  0
  -27.1080   14.0910   27.1140 C   0  0  0  0  0  0  0  0  0  0  0  0
  -30.0000   17.6560   29.7450 N   0  0  0  0  0  0  0  0  0  0  0  0
  -29.7480   18.8210   30.5830 C   0  0  2  0  0  0  0  0  0  0  0  0
  -30.2950   18.7030   32.0090 C   0  0  0  0  0  0  0  0  0  0  0  0
  -29.9490   19.4980   32.8810 O   0  0  0  0  0  0  0  0  0  0  0  0
  -30.2160   20.1090   29.9020 C   0  0  0  0  0  0  0  0  0  0  0  0
  -31.7040   20.3600   29.9490 C   0  0  0  0  0  0  0  0  0  0  0  0
  -32.0420   21.8110   29.5950 C   0  0  0  0  0  0  0  0  0  0  0  0
  -31.9880   22.2090   28.4170 O   0  0  0  0  0  0  0  0  0  0  0  0
  -32.3990   22.6060   30.6110 N   0  0  0  0  0  0  0  0  0  0  0  0
  -31.1290   17.6920   32.2410 N   0  0  0  0  0  0  0  0  0  0  0  0
  -31.7420   17.4740   33.5480 C   0  0  2  0  0  0  0  0  0  0  0  0
  -30.8390   16.6570   34.4750 C   0  0  0  0  0  0  0  0  0  0  0  0
  -30.0220   15.8520   34.0000 O   0  0  0  0  0  0  0  0  0  0  0  0
  -33.0950   16.7860   33.3950 C   0  0  0  0  0  0  0  0  0  0  0  0
  -34.2210   17.7600   33.0670 C   0  0  0  0  0  0  0  0  0  0  0  0
  -35.3970   17.3160   33.0790 O   0  0  0  0  0  0  0  0  0  0  0  0
  -33.9390   18.9570   32.7990 O   0  0  0  0  0  0  0  0  0  0  0  0
  2  1  1  1
  3  2  1  0
  4  3  2  0
  5  2  1  0
  6  5  1  0
  7  6  1  0
  8  7  1  0
  9  8  1  0
 10  3  1  0
 11 10  1  6
 12 11  1  0
 13 12  2  0
 14 11  1  0
 15 14  1  0
 14 16  1  1
 17 15  1  0
 18 12  1  0
 19 18  1  0
 20 19  1  0
 21 20  2  0
 19 22  1  6
 23 22  1  0
 24 23  1  0
 25 23  1  0
 26 20  1  0
 27 26  1  0
 28 27  1  0
 29 28  2  0
 27 30  1  6
 31 30  1  0
 32 31  1  0
 33 31  2  0
 34 32  2  0
 35 34  1  0
 35 33  1  0
 36 28  1  0
 37 36  1  0
 38 37  1  0
 39 38  2  0
 37 40  1  6
 41 40  1  0
 42 41  1  0
 43 42  1  0
 44 43  1  0
 45 44  1  0
 46 44  2  0
 47 38  1  0
 48 47  1  0
 49 48  1  0
 50 49  2  0
 48 51  1  6
 52 51  1  0
 53 52  1  0
 54 52  1  0
 55 49  1  0
 56 55  1  0
 57 56  1  0
 58 57  2  0
 56 59  1  6
 60 59  1  0
 61 60  1  0
 62 60  1  0
 63 57  1  0
 64 63  1  0
 65 64  1  0
 66 65  2  0
 64 67  1  6
 68 67  1  0
 69 68  1  0
 70 69  2  0
 71 69  1  0
 72 65  1  0
 73 72  1  0
 74 73  1  0
 75 74  2  0
 73 76  1  6
 77 76  1  0
 78 77  2  0
 79 77  1  0
M  END
$$$$
6PSJ
     RDKit          3D

 35 39  0  0  0  0  0  0  0  0999 V2000
   -4.2160  -29.9140   17.0070 C   0  0  0  0  0  0  0  0  0  0  0  0
   -2.9620  -29.0490   17.0490 C   0  0  0  0  0  0  0  0  0  0  0  0
   -3.2160  -27.5580   17.1250 C   0  0  0  0  0  0  0  0  0  0  0  0
   -4.1920  -27.1010   18.1950 C   0  0  0  0  0  0  0  0  0  0  0  0
   -4.5600  -28.1320   19.2190 C   0  0  0  0  0  0  0  0  0  0  0  0
   -5.4500  -29.1880   18.7050 C   0  0  0  0  0  0  0  0  0  0  0  0
   -4.8250  -30.2200   18.1610 N   0  0  0  0  0  0  0  0  0  0  0  0
   -4.1160  -31.0220   18.8760 C   0  0  0  0  0  0  0  0  0  0  0  0
   -4.3770  -31.2140   20.3820 C   0  0  0  0  0  0  0  0  0  0  0  0
   -3.5270  -30.3530   21.0040 O   0  0  0  0  0  0  0  0  0  0  0  0
   -3.6780  -30.0530   22.3680 C   0  0  0  0  0  0  0  0  0  0  0  0
   -2.8110  -29.1370   22.9040 C   0  0  0  0  0  0  0  0  0  0  0  0
   -2.8290  -28.7660   24.2270 C   0  0  0  0  0  0  0  0  0  0  0  0
   -4.6060  -30.6180   23.1940 C   0  0  0  0  0  0  0  0  0  0  0  0
   -4.6080  -30.2470   24.5440 C   0  0  0  0  0  0  0  0  0  0  0  0
   -3.7360  -29.3160   25.0950 C   0  0  0  0  0  0  0  0  0  0  0  0
   -3.7600  -28.8500   26.6120 C   0  0  0  0  0  0  0  0  0  0  0  0
   -2.7940  -27.8140   26.7890 N   0  0  0  0  0  0  0  0  0  0  0  0
   -3.0140  -26.4940   26.6050 C   0  0  0  0  0  0  0  0  0  0  0  0
   -4.2030  -25.7950   26.2870 C   0  0  0  0  0  0  0  0  0  0  0  0
   -4.2020  -24.4280   26.1290 C   0  0  0  0  0  0  0  0  0  0  0  0
   -3.0360  -23.6840   26.3210 C   0  0  0  0  0  0  0  0  0  0  0  0
   -3.0800  -22.3040   26.1510 O   0  0  0  0  0  0  0  0  0  0  0  0
   -1.8400  -24.3640   26.6400 C   0  0  0  0  0  0  0  0  0  0  0  0
   -1.8540  -25.7760   26.7680 C   0  0  0  0  0  0  0  0  0  0  0  0
   -0.8930  -26.7720   27.1020 C   0  0  0  0  0  0  0  0  0  0  0  0
    0.5400  -26.5120   27.3480 C   0  0  0  0  0  0  0  0  0  0  0  0
   -1.5570  -27.9970   27.0900 C   0  0  2  0  0  0  0  0  0  0  0  0
   -0.9520  -29.3610   27.2750 C   0  0  0  0  0  0  0  0  0  0  0  0
   -0.2800  -29.8550   26.2170 C   0  0  0  0  0  0  0  0  0  0  0  0
    0.3070  -31.0740   26.2420 C   0  0  0  0  0  0  0  0  0  0  0  0
    0.2350  -31.8580   27.3430 C   0  0  0  0  0  0  0  0  0  0  0  0
    0.8520  -33.0910   27.3400 O   0  0  0  0  0  0  0  0  0  0  0  0
   -0.4390  -31.4030   28.4400 C   0  0  0  0  0  0  0  0  0  0  0  0
   -1.0310  -30.1470   28.3910 C   0  0  0  0  0  0  0  0  0  0  0  0
  2  1  1  0
  3  2  1  0
  4  3  1  0
  5  4  1  0
  6  5  1  0
  7  6  1  0
  7  1  1  0
  8  7  1  0
  9  8  1  0
 10  9  1  0
 11 10  1  0
 12 11  1  0
 13 12  1  0
 14 11  1  0
 15 14  1  0
 16 15  1  0
 16 13  1  0
 17 16  1  0
 18 17  1  0
 19 18  1  0
 20 19  1  0
 21 20  1  0
 22 21  1  0
 23 22  1  0
 24 22  1  0
 25 24  1  0
 25 19  1  0
 26 25  1  0
 27 26  1  0
 28 18  1  0
 28 26  1  0
 28 29  1  6
 30 29  1  0
 31 30  1  0
 32 31  1  0
 33 32  1  0
 34 32  1  0
 35 34  1  0
 35 29  1  0
M  END
$$$$
5WGD
     RDKit          3D

 20 23  0  0  0  0  0  0  0  0999 V2000
   61.4060   -2.4290   59.7530 C   0  0  0  0  0  0  0  0  0  0  0  0
   60.5960   -2.2230   58.6720 C   0  0  0  0  0  0  0  0  0  0  0  0
   59.2300   -2.3820   58.7240 C   0  0  0  0  0  0  0  0  0  0  0  0
   58.4970   -2.1440   57.6400 O   0  0  0  0  0  0  0  0  0  0  0  0
   58.6380   -2.7810   59.8870 C   0  0  0  0  0  0  0  0  0  0  0  0
   59.4000   -2.9960   61.0160 C   0  0  0  0  0  0  0  0  0  0  0  0
   58.7610   -3.4260   62.3150 C   0  0  0  0  0  0  0  0  0  0  0  0
   59.7570   -3.9570   63.3130 C   0  0  0  0  0  0  0  0  0  0  0  0
   61.0010   -3.1090   63.4470 C   0  0  2  0  0  0  0  0  0  0  0  0
   61.7470   -3.0700   62.1320 C   0  0  1  0  0  0  0  0  0  0  0  0
   60.8720   -2.8200   60.9470 C   0  0  0  0  0  0  0  0  0  0  0  0
   62.9140   -2.1050   62.2690 C   0  0  0  0  0  0  0  0  0  0  0  0
   63.8820   -2.6600   63.2970 C   0  0  0  0  0  0  0  0  0  0  0  0
   63.2160   -2.8240   64.6650 C   0  0  1  0  0  0  0  0  0  0  0  0
   61.9880   -3.6690   64.4680 C   0  0  1  0  0  0  0  0  0  0  0  0
   61.5430   -3.9890   65.8810 C   0  0  0  0  0  0  0  0  0  0  0  0
   62.7950   -4.0290   66.7010 C   0  0  0  0  0  0  0  0  0  0  0  0
   63.9300   -3.5630   65.8020 C   0  0  2  0  0  0  0  0  0  0  0  0
   64.9000   -2.8400   66.4990 O   0  0  0  0  0  0  0  0  0  0  0  0
   62.8050   -1.4870   65.1690 C   0  0  0  0  0  0  0  0  0  0  0  0
  2  1  1  0
  3  2  1  0
  4  3  1  0
  5  3  1  0
  6  5  1  0
  7  6  1  0
  8  7  1  0
  9  8  1  6
 10  9  1  0
 11  6  1  0
 11  1  1  0
 11 10  1  0
 10 12  1  1
 13 12  1  0
 14 13  1  0
 15 14  1  0
 15  9  1  0
 15 16  1  1
 17 16  1  0
 18 14  1  0
 18 17  1  0
 18 19  1  1
 14 20  1  1
M  END
$$$$
8BYE
     RDKit          3D

 71 72  0  0  0  0  0  0  0  0999 V2000
  -12.1600   -8.1270   14.5260 N   0  0  0  0  0  0  0  0  0  0  0  0
  -13.2470   -9.0990   14.4790 C   0  0  2  0  0  0  0  0  0  0  0  0
  -12.7500  -10.3720   13.8040 C   0  0  0  0  0  0  0  0  0  0  0  0
  -11.8520  -10.3240   12.9600 O   0  0  0  0  0  0  0  0  0  0  0  0
  -14.4480   -8.5290   13.7350 C   0  0  0  0  0  0  0  0  0  0  0  0
  -15.0540   -7.3220   14.3930 C   0  0  0  0  0  0  0  0  0  0  0  0
  -14.5180   -6.0580   14.1990 C   0  0  0  0  0  0  0  0  0  0  0  0
  -16.1660   -7.4510   15.2090 C   0  0  0  0  0  0  0  0  0  0  0  0
  -15.0960   -4.9450   14.7940 C   0  0  0  0  0  0  0  0  0  0  0  0
  -16.7420   -6.3400   15.8090 C   0  0  0  0  0  0  0  0  0  0  0  0
  -16.2070   -5.0900   15.5980 C   0  0  0  0  0  0  0  0  0  0  0  0
  -13.5480   -9.3130   15.3760 H   0  0  0  0  0  0  0  0  0  0  0  0
  -14.1670   -8.2700   12.8430 H   0  0  0  0  0  0  0  0  0  0  0  0
  -15.1340   -9.2130   13.6820 H   0  0  0  0  0  0  0  0  0  0  0  0
  -13.7630   -5.9560   13.6660 H   0  0  0  0  0  0  0  0  0  0  0  0
  -16.5320   -8.2940   15.3570 H   0  0  0  0  0  0  0  0  0  0  0  0
  -14.7340   -4.1000   14.6500 H   0  0  0  0  0  0  0  0  0  0  0  0
  -17.4890   -6.4410   16.3530 H   0  0  0  0  0  0  0  0  0  0  0  0
  -16.5940   -4.3440   15.9970 H   0  0  0  0  0  0  0  0  0  0  0  0
  -13.3040  -11.5180   14.1730 N   0  0  0  0  0  0  0  0  0  0  0  0
  -12.7890  -12.7750   13.6300 C   0  0  2  0  0  0  0  0  0  0  0  0
  -13.3710  -13.0840   12.2560 C   0  0  0  0  0  0  0  0  0  0  0  0
  -14.4440  -12.6230   11.8710 O   0  0  0  0  0  0  0  0  0  0  0  0
  -13.2180  -13.8130   14.6710 C   0  0  0  0  0  0  0  0  0  0  0  0
  -14.4890  -13.2490   15.2390 C   0  0  0  0  0  0  0  0  0  0  0  0
  -14.3370  -11.7350   15.2070 C   0  0  0  0  0  0  0  0  0  0  0  0
  -11.8210  -12.7600   13.5700 H   0  0  0  0  0  0  0  0  0  0  0  0
  -13.3740  -14.6700   14.2450 H   0  0  0  0  0  0  0  0  0  0  0  0
  -12.5370  -13.9020   15.3560 H   0  0  0  0  0  0  0  0  0  0  0  0
  -15.2410  -13.5290   14.6930 H   0  0  0  0  0  0  0  0  0  0  0  0
  -14.6060  -13.5620   16.1490 H   0  0  0  0  0  0  0  0  0  0  0  0
  -15.1720  -11.3100   14.9560 H   0  0  0  0  0  0  0  0  0  0  0  0
  -14.0400  -11.4010   16.0680 H   0  0  0  0  0  0  0  0  0  0  0  0
  -12.6290  -13.8920   11.5070 N   0  0  0  0  0  0  0  0  0  0  0  0
  -13.0330  -14.2540   10.1700 C   0  0  2  0  0  0  0  0  0  0  0  0
  -14.1530  -15.3030   10.1750 C   0  0  0  0  0  0  0  0  0  0  0  0
  -14.0800  -16.2850   10.9270 O   0  0  0  0  0  0  0  0  0  0  0  0
  -11.8510  -14.7910    9.3760 C   0  0  0  0  0  0  0  0  0  0  0  0
  -11.8840  -14.2410   11.7580 H   0  0  0  0  0  0  0  0  0  0  0  0
  -13.3650  -13.4520    9.7370 H   0  0  0  0  0  0  0  0  0  0  0  0
  -12.1510  -15.0260    8.4840 H   0  0  0  0  0  0  0  0  0  0  0  0
  -11.1670  -14.1060    9.3250 H   0  0  0  0  0  0  0  0  0  0  0  0
  -11.5000  -15.5770    9.8240 H   0  0  0  0  0  0  0  0  0  0  0  0
  -15.1760  -15.0550    9.3600 N   0  0  0  0  0  0  0  0  0  0  0  0
  -16.2360  -16.0170    9.0600 C   0  0  1  0  0  0  0  0  0  0  0  0
  -17.5650  -15.6790    9.8100 C   0  0  1  0  0  0  0  0  0  0  0  0
  -17.3750  -15.8670   11.3200 C   0  0  0  0  0  0  0  0  0  0  0  0
  -17.7890  -14.3110    9.4880 O   0  0  0  0  0  0  0  0  0  0  0  0
  -19.2770  -13.7270    9.8200 P   0  0  0  0  0  0  0  0  0  0  0  0
  -19.3450  -12.4490    8.8750 O   0  0  0  0  0  0  0  0  0  0  0  0
  -20.4040  -14.7420    9.4310 O   0  0  0  0  0  0  0  0  0  0  0  0
  -19.2580  -13.3220   11.2460 O   0  0  0  0  0  0  0  0  0  0  0  0
  -16.4790  -16.0160    7.5690 C   0  0  0  0  0  0  0  0  0  0  0  0
  -16.1500  -15.0440    6.8710 O   0  0  0  0  0  0  0  0  0  0  0  0
  -17.0660  -17.0910    7.0690 N   0  0  0  0  0  0  0  0  0  0  0  0
  -17.3830  -17.1720    5.6380 C   0  0  2  0  0  0  0  0  0  0  0  0
  -18.8100  -17.5550    5.3190 C   0  0  0  0  0  0  0  0  0  0  0  0
  -19.5780  -18.0450    6.1640 O   0  0  0  0  0  0  0  0  0  0  0  0
  -16.4540  -18.1970    4.9050 C   0  0  0  0  0  0  0  0  0  0  0  0
  -15.0210  -17.7970    5.0580 C   0  0  0  0  0  0  0  0  0  0  0  0
  -16.7230  -19.6430    5.4060 C   0  0  0  0  0  0  0  0  0  0  0  0
  -19.2050  -17.4290    4.1430 O   0  0  0  0  0  0  0  0  0  0  0  0
  -17.2930  -17.7830    7.5260 H   0  0  0  0  0  0  0  0  0  0  0  0
  -17.2470  -16.2670    5.3170 H   0  0  0  0  0  0  0  0  0  0  0  0
  -16.6520  -18.1910    3.9550 H   0  0  0  0  0  0  0  0  0  0  0  0
  -14.9800  -16.8690    5.3370 H   0  0  0  0  0  0  0  0  0  0  0  0
  -14.6050  -18.3630    5.7270 H   0  0  0  0  0  0  0  0  0  0  0  0
  -14.5700  -17.9060    4.2060 H   0  0  0  0  0  0  0  0  0  0  0  0
  -17.1920  -19.6010    6.2540 H   0  0  0  0  0  0  0  0  0  0  0  0
  -17.2660  -20.1080    4.7500 H   0  0  0  0  0  0  0  0  0  0  0  0
  -15.8760  -20.1010    5.5180 H   0  0  0  0  0  0  0  0  0  0  0  0
  2  1  1  0
  3  2  1  0
  4  3  2  0
  5  2  1  0
  6  5  1  0
  7  6  2  0
  8  6  1  0
  9  7  1  0
 10  8  2  0
 11 10  1  0
 11  9  2  0
  2 12  1  1
 13  5  1  0
 14  5  1  0
 15  7  1  0
 16  8  1  0
 17  9  1  0
 18 10  1  0
 19 11  1  0
 20  3  1  0
 21 20  1  0
 22 21  1  0
 23 22  2  0
 24 21  1  0
 25 24  1  0
 26 25  1  0
 26 20  1  0
 21 27  1  6
 28 24  1  0
 29 24  1  0
 30 25  1  0
 31 25  1  0
 32 26  1  0
 33 26  1  0
 34 22  1  0
 35 34  1  0
 36 35  1  0
 37 36  2  0
 38 35  1  0
 39 34  1  0
 35 40  1  6
 41 38  1  0
 42 38  1  0
 43 38  1  0
 44 36  1  0
 45 44  1  6
 46 45  1  0
 46 47  1  1
 48 46  1  0
 49 48  1  0
 50 49  1  0
 51 49  1  0
 52 49  1  0
 53 45  1  0
 54 53  1  0
 55 53  1  0
 56 55  1  0
 57 56  1  0
 58 57  2  0
 59 56  1  0
 60 59  1  0
 61 59  1  0
 62 57  1  0
 63 55  1  0
 56 64  1  6
 65 59  1  0
 66 60  1  0
 67 60  1  0
 68 60  1  0
 69 61  1  0
 70 61  1  0
 71 61  1  0
M  END
$$$$
8BYD
     RDKit          3D

 71 72  0  0  0  0  0  0  0  0999 V2000
  -12.6790   -7.9970   14.4360 N   0  0  0  0  0  0  0  0  0  0  0  0
  -13.6010   -9.1320   14.4420 C   0  0  2  0  0  0  0  0  0  0  0  0
  -12.9650  -10.3610   13.8020 C   0  0  0  0  0  0  0  0  0  0  0  0
  -12.1080  -10.2490   12.9250 O   0  0  0  0  0  0  0  0  0  0  0  0
  -14.9120   -8.7540   13.7310 C   0  0  0  0  0  0  0  0  0  0  0  0
  -14.7310   -8.2600   12.3220 C   0  0  0  0  0  0  0  0  0  0  0  0
  -14.5120   -9.1430   11.2740 C   0  0  0  0  0  0  0  0  0  0  0  0
  -14.7700   -6.8970   12.0470 C   0  0  0  0  0  0  0  0  0  0  0  0
  -14.3430   -8.6740    9.9790 C   0  0  0  0  0  0  0  0  0  0  0  0
  -14.5950   -6.4250   10.7570 C   0  0  0  0  0  0  0  0  0  0  0  0
  -14.3840   -7.3130    9.7240 C   0  0  0  0  0  0  0  0  0  0  0  0
  -13.8200   -9.3650   15.3580 H   0  0  0  0  0  0  0  0  0  0  0  0
  -15.4820   -9.5380   13.6970 H   0  0  0  0  0  0  0  0  0  0  0  0
  -15.3460   -8.0490   14.2360 H   0  0  0  0  0  0  0  0  0  0  0  0
  -14.4790  -10.0570   11.4420 H   0  0  0  0  0  0  0  0  0  0  0  0
  -14.9170   -6.2940   12.7400 H   0  0  0  0  0  0  0  0  0  0  0  0
  -14.2020   -9.2740    9.2830 H   0  0  0  0  0  0  0  0  0  0  0  0
  -14.6190   -5.5110   10.5870 H   0  0  0  0  0  0  0  0  0  0  0  0
  -14.2700   -6.9980    8.8560 H   0  0  0  0  0  0  0  0  0  0  0  0
  -13.3750  -11.5420   14.2450 N   0  0  0  0  0  0  0  0  0  0  0  0
  -12.8120  -12.7700   13.6790 C   0  0  2  0  0  0  0  0  0  0  0  0
  -13.3990  -13.0810   12.3100 C   0  0  0  0  0  0  0  0  0  0  0  0
  -14.4750  -12.6120   11.9320 O   0  0  0  0  0  0  0  0  0  0  0  0
  -13.1950  -13.8370   14.7090 C   0  0  0  0  0  0  0  0  0  0  0  0
  -14.4600  -13.3330   15.3210 C   0  0  0  0  0  0  0  0  0  0  0  0
  -14.3620  -11.8210   15.3090 C   0  0  0  0  0  0  0  0  0  0  0  0
  -11.8450  -12.7180   13.6120 H   0  0  0  0  0  0  0  0  0  0  0  0
  -13.3370  -14.6880   14.2670 H   0  0  0  0  0  0  0  0  0  0  0  0
  -12.4950  -13.9210   15.3750 H   0  0  0  0  0  0  0  0  0  0  0  0
  -15.2180  -13.6320   14.7950 H   0  0  0  0  0  0  0  0  0  0  0  0
  -14.5370  -13.6640   16.2300 H   0  0  0  0  0  0  0  0  0  0  0  0
  -15.2200  -11.4230   15.0940 H   0  0  0  0  0  0  0  0  0  0  0  0
  -14.0470  -11.4910   16.1650 H   0  0  0  0  0  0  0  0  0  0  0  0
  -12.6720  -13.9110   11.5620 N   0  0  0  0  0  0  0  0  0  0  0  0
  -13.0750  -14.2690   10.2310 C   0  0  2  0  0  0  0  0  0  0  0  0
  -14.1970  -15.3210   10.2240 C   0  0  0  0  0  0  0  0  0  0  0  0
  -14.1330  -16.3060   10.9590 O   0  0  0  0  0  0  0  0  0  0  0  0
  -11.8930  -14.8050    9.4320 C   0  0  0  0  0  0  0  0  0  0  0  0
  -11.9360  -14.2760   11.8170 H   0  0  0  0  0  0  0  0  0  0  0  0
  -13.4090  -13.4630    9.8060 H   0  0  0  0  0  0  0  0  0  0  0  0
  -12.1940  -15.0380    8.5400 H   0  0  0  0  0  0  0  0  0  0  0  0
  -11.2090  -14.1180    9.3810 H   0  0  0  0  0  0  0  0  0  0  0  0
  -11.5400  -15.5900    9.8780 H   0  0  0  0  0  0  0  0  0  0  0  0
  -15.2000  -15.0800    9.3880 N   0  0  0  0  0  0  0  0  0  0  0  0
  -16.2610  -16.0330    9.0780 C   0  0  1  0  0  0  0  0  0  0  0  0
  -17.5730  -15.6960    9.8280 C   0  0  1  0  0  0  0  0  0  0  0  0
  -17.3910  -15.9060   11.3410 C   0  0  0  0  0  0  0  0  0  0  0  0
  -17.8260  -14.3270    9.4840 O   0  0  0  0  0  0  0  0  0  0  0  0
  -19.2880  -13.7360    9.8560 P   0  0  0  0  0  0  0  0  0  0  0  0
  -19.3510  -12.4320    8.9050 O   0  0  0  0  0  0  0  0  0  0  0  0
  -19.2710  -13.3380   11.2890 O   0  0  0  0  0  0  0  0  0  0  0  0
  -20.4120  -14.7630    9.4860 O   0  0  0  0  0  0  0  0  0  0  0  0
  -16.4870  -16.0310    7.5740 C   0  0  0  0  0  0  0  0  0  0  0  0
  -16.1560  -15.0570    6.8820 O   0  0  0  0  0  0  0  0  0  0  0  0
  -17.0400  -17.1190    7.0560 N   0  0  0  0  0  0  0  0  0  0  0  0
  -17.3290  -17.2000    5.6310 C   0  0  2  0  0  0  0  0  0  0  0  0
  -18.7600  -17.6040    5.3410 C   0  0  0  0  0  0  0  0  0  0  0  0
  -19.5220  -18.0350    6.2220 O   0  0  0  0  0  0  0  0  0  0  0  0
  -16.4050  -18.1950    4.9230 C   0  0  0  0  0  0  0  0  0  0  0  0
  -14.9850  -17.7660    5.0730 C   0  0  0  0  0  0  0  0  0  0  0  0
  -16.6380  -19.6050    5.4570 C   0  0  0  0  0  0  0  0  0  0  0  0
  -19.1730  -17.5310    4.1640 O   0  0  0  0  0  0  0  0  0  0  0  0
  -17.2560  -17.8200    7.5060 H   0  0  0  0  0  0  0  0  0  0  0  0
  -17.1870  -16.3050    5.2850 H   0  0  0  0  0  0  0  0  0  0  0  0
  -16.6030  -18.2130    3.9740 H   0  0  0  0  0  0  0  0  0  0  0  0
  -14.8140  -17.5620    6.0060 H   0  0  0  0  0  0  0  0  0  0  0  0
  -14.4050  -18.4870    4.7800 H   0  0  0  0  0  0  0  0  0  0  0  0
  -14.8340  -16.9780    4.5280 H   0  0  0  0  0  0  0  0  0  0  0  0
  -17.2010  -19.5550    6.2450 H   0  0  0  0  0  0  0  0  0  0  0  0
  -17.0760  -20.1340    4.7710 H   0  0  0  0  0  0  0  0  0  0  0  0
  -15.7830  -20.0020    5.6850 H   0  0  0  0  0  0  0  0  0  0  0  0
  2  1  1  0
  3  2  1  0
  4  3  2  0
  5  2  1  0
  6  5  1  0
  7  6  2  0
  8  6  1  0
  9  7  1  0
 10  8  2  0
 11 10  1  0
 11  9  2  0
  2 12  1  1
 13  5  1  0
 14  5  1  0
 15  7  1  0
 16  8  1  0
 17  9  1  0
 18 10  1  0
 19 11  1  0
 20  3  1  0
 21 20  1  0
 22 21  1  0
 23 22  2  0
 24 21  1  0
 25 24  1  0
 26 25  1  0
 26 20  1  0
 21 27  1  6
 28 24  1  0
 29 24  1  0
 30 25  1  0
 31 25  1  0
 32 26  1  0
 33 26  1  0
 34 22  1  0
 35 34  1  0
 36 35  1  0
 37 36  2  0
 38 35  1  0
 39 34  1  0
 35 40  1  6
 41 38  1  0
 42 38  1  0
 43 38  1  0
 44 36  1  0
 45 44  1  6
 46 45  1  0
 46 47  1  1
 48 46  1  0
 49 48  1  0
 50 49  1  0
 51 49  1  0
 52 49  1  0
 53 45  1  0
 54 53  1  0
 55 53  1  0
 56 55  1  0
 57 56  1  0
 58 57  2  0
 59 56  1  0
 60 59  1  0
 61 59  1  0
 62 57  1  0
 63 55  1  0
 56 64  1  6
 65 59  1  0
 66 60  1  0
 67 60  1  0
 68 60  1  0
 69 61  1  0
 70 61  1  0
 71 61  1  0
M  END
$$$$
8BZH
     RDKit          3D

 76 77  0  0  0  0  0  0  0  0999 V2000
   12.7910    7.3680   15.4470 N   0  0  0  0  0  0  0  0  0  0  0  0
   13.6990    8.5120   15.4060 C   0  0  2  0  0  0  0  0  0  0  0  0
   13.0100    9.7070   14.7510 C   0  0  0  0  0  0  0  0  0  0  0  0
   12.1230    9.5370   13.9130 O   0  0  0  0  0  0  0  0  0  0  0  0
   14.9790    8.1460   14.6440 C   0  0  0  0  0  0  0  0  0  0  0  0
   15.8250    7.1110   15.3480 C   0  0  0  0  0  0  0  0  0  0  0  0
   16.7280    7.4900   16.3300 C   0  0  0  0  0  0  0  0  0  0  0  0
   15.7090    5.7650   15.0350 C   0  0  0  0  0  0  0  0  0  0  0  0
   17.4990    6.5470   16.9860 C   0  0  0  0  0  0  0  0  0  0  0  0
   16.4820    4.8160   15.6870 C   0  0  0  0  0  0  0  0  0  0  0  0
   17.3730    5.2110   16.6660 C   0  0  0  0  0  0  0  0  0  0  0  0
   13.9540    8.7630   16.3070 H   0  0  0  0  0  0  0  0  0  0  0  0
   14.7350    7.7890   13.7750 H   0  0  0  0  0  0  0  0  0  0  0  0
   15.5170    8.9450   14.5340 H   0  0  0  0  0  0  0  0  0  0  0  0
   16.8160    8.3900   16.5500 H   0  0  0  0  0  0  0  0  0  0  0  0
   15.1060    5.4960   14.3800 H   0  0  0  0  0  0  0  0  0  0  0  0
   18.1020    6.8140   17.6430 H   0  0  0  0  0  0  0  0  0  0  0  0
   16.4000    3.9170   15.4660 H   0  0  0  0  0  0  0  0  0  0  0  0
   17.8880    4.5760   17.1090 H   0  0  0  0  0  0  0  0  0  0  0  0
   13.4110   10.9190   15.1240 N   0  0  0  0  0  0  0  0  0  0  0  0
   12.8210   12.1090   14.5040 C   0  0  2  0  0  0  0  0  0  0  0  0
   13.4390   12.3840   13.1410 C   0  0  0  0  0  0  0  0  0  0  0  0
   14.5170   11.8960   12.7970 O   0  0  0  0  0  0  0  0  0  0  0  0
   13.1840   13.2250   15.4800 C   0  0  0  0  0  0  0  0  0  0  0  0
   14.5010   12.8080   16.0310 C   0  0  0  0  0  0  0  0  0  0  0  0
   14.5060   11.2730   16.0510 C   0  0  0  0  0  0  0  0  0  0  0  0
   11.8570   12.0250   14.4290 H   0  0  0  0  0  0  0  0  0  0  0  0
   13.2520   14.0710   15.0110 H   0  0  0  0  0  0  0  0  0  0  0  0
   12.5150   13.2870   16.1800 H   0  0  0  0  0  0  0  0  0  0  0  0
   15.2100   13.1430   15.4610 H   0  0  0  0  0  0  0  0  0  0  0  0
   14.6020   13.1600   16.9290 H   0  0  0  0  0  0  0  0  0  0  0  0
   15.3540   10.9260   15.7320 H   0  0  0  0  0  0  0  0  0  0  0  0
   14.3260   10.9380   16.9430 H   0  0  0  0  0  0  0  0  0  0  0  0
   12.7430   13.2110   12.3680 N   0  0  0  0  0  0  0  0  0  0  0  0
   13.1560   13.4730   10.9950 C   0  0  2  0  0  0  0  0  0  0  0  0
   14.1690   14.6160   10.8540 C   0  0  0  0  0  0  0  0  0  0  0  0
   14.0560   15.6370   11.5350 O   0  0  0  0  0  0  0  0  0  0  0  0
   11.9300   13.7670   10.1430 C   0  0  0  0  0  0  0  0  0  0  0  0
   12.0340   13.6300   12.6140 H   0  0  0  0  0  0  0  0  0  0  0  0
   13.6050   12.6740   10.6750 H   0  0  0  0  0  0  0  0  0  0  0  0
   12.2060   13.8720    9.2190 H   0  0  0  0  0  0  0  0  0  0  0  0
   11.3070   13.0280   10.2210 H   0  0  0  0  0  0  0  0  0  0  0  0
   11.5150   14.5850   10.4600 H   0  0  0  0  0  0  0  0  0  0  0  0
   15.1510   14.4370    9.9650 N   0  0  0  0  0  0  0  0  0  0  0  0
   16.1880   15.4460    9.6460 C   0  0  1  0  0  0  0  0  0  0  0  0
   17.5410   15.0920   10.3000 C   0  0  1  0  0  0  0  0  0  0  0  0
   17.3960   15.2300   11.8220 C   0  0  2  0  0  0  0  0  0  0  0  0
   17.7910   13.7560    9.8500 O   0  0  0  0  0  0  0  0  0  0  0  0
   19.2690   13.1810   10.1550 P   0  0  0  0  0  0  0  0  0  0  0  0
   19.3570   11.9080    9.2170 O   0  0  0  0  0  0  0  0  0  0  0  0
   19.3440   12.7920   11.6140 O   0  0  0  0  0  0  0  0  0  0  0  0
   20.3990   14.2210    9.7830 O   0  0  0  0  0  0  0  0  0  0  0  0
   16.2580   15.4870    8.1140 C   0  0  0  0  0  0  0  0  0  0  0  0
   15.6970   14.6130    7.4170 O   0  0  0  0  0  0  0  0  0  0  0  0
   15.9820   16.3330   10.0080 H   0  0  0  0  0  0  0  0  0  0  0  0
   18.3780   15.7370   10.0330 H   0  0  0  0  0  0  0  0  0  0  0  0
   18.3730   15.1220   12.2920 H   0  0  0  0  0  0  0  0  0  0  0  0
   16.7260   14.4560   12.1950 H   0  0  0  0  0  0  0  0  0  0  0  0
   16.9850   16.2120   12.0610 H   0  0  0  0  0  0  0  0  0  0  0  0
   16.9060   16.5060    7.5750 N   0  0  0  0  0  0  0  0  0  0  0  0
   17.0290   16.6780    6.1270 C   0  0  2  0  0  0  0  0  0  0  0  0
   18.4600   17.0810    5.7930 C   0  0  0  0  0  0  0  0  0  0  0  0
   19.1860   17.5880    6.6560 O   0  0  0  0  0  0  0  0  0  0  0  0
   15.9770   17.6870    5.5720 C   0  0  0  0  0  0  0  0  0  0  0  0
   16.3160   19.0840    6.0430 C   0  0  0  0  0  0  0  0  0  0  0  0
   15.8910   17.6220    4.0630 C   0  0  0  0  0  0  0  0  0  0  0  0
   18.9130   16.9230    4.6440 O   0  0  0  0  0  0  0  0  0  0  0  0
   17.2920   17.1260    8.0290 H   0  0  0  0  0  0  0  0  0  0  0  0
   16.8450   15.8380    5.6790 H   0  0  0  0  0  0  0  0  0  0  0  0
   15.1000   17.4480    5.9110 H   0  0  0  0  0  0  0  0  0  0  0  0
   16.8970   19.5050    5.3900 H   0  0  0  0  0  0  0  0  0  0  0  0
   15.4960   19.5940    6.1330 H   0  0  0  0  0  0  0  0  0  0  0  0
   16.7660   19.0270    6.9000 H   0  0  0  0  0  0  0  0  0  0  0  0
   15.1480   18.1700    3.7650 H   0  0  0  0  0  0  0  0  0  0  0  0
   16.7200   17.9560    3.6850 H   0  0  0  0  0  0  0  0  0  0  0  0
   15.7520   16.7010    3.7930 H   0  0  0  0  0  0  0  0  0  0  0  0
  2  1  1  0
  3  2  1  0
  4  3  2  0
  5  2  1  0
  6  5  1  0
  7  6  2  0
  8  6  1  0
  9  7  1  0
 10  8  2  0
 11 10  1  0
 11  9  2  0
  2 12  1  1
 13  5  1  0
 14  5  1  0
 15  7  1  0
 16  8  1  0
 17  9  1  0
 18 10  1  0
 19 11  1  0
 20  3  1  0
 21 20  1  0
 22 21  1  0
 23 22  2  0
 24 21  1  0
 25 24  1  0
 26 25  1  0
 26 20  1  0
 21 27  1  6
 28 24  1  0
 29 24  1  0
 30 25  1  0
 31 25  1  0
 32 26  1  0
 33 26  1  0
 34 22  1  0
 35 34  1  0
 36 35  1  0
 37 36  2  0
 38 35  1  0
 39 34  1  0
 35 40  1  6
 41 38  1  0
 42 38  1  0
 43 38  1  0
 44 36  1  0
 45 44  1  0
 46 45  1  0
 47 46  1  0
 48 46  1  0
 49 48  1  0
 50 49  1  0
 51 49  1  0
 52 49  1  0
 53 45  1  0
 54 53  1  0
 45 55  1  1
 46 56  1  6
 47 57  1  1
 58 47  1  0
 59 47  1  0
 60 53  1  0
 61 60  1  0
 62 61  1  0
 63 62  2  0
 64 61  1  0
 65 64  1  0
 66 64  1  0
 67 62  1  0
 68 60  1  0
 61 69  1  6
 70 64  1  0
 71 65  1  0
 72 65  1  0
 73 65  1  0
 74 66  1  0
 75 66  1  0
 76 66  1  0
M  END
$$$$
8BWX
     RDKit          3D

 71 72  0  0  0  0  0  0  0  0999 V2000
  -12.6530    7.9450  -14.6080 N   0  0  0  0  0  0  0  0  0  0  0  0
  -13.5890    9.0740  -14.6020 C   0  0  2  0  0  0  0  0  0  0  0  0
  -12.9480   10.2940  -13.9440 C   0  0  0  0  0  0  0  0  0  0  0  0
  -12.1030   10.1650  -13.0530 O   0  0  0  0  0  0  0  0  0  0  0  0
  -14.9020    8.6680  -13.9090 C   0  0  0  0  0  0  0  0  0  0  0  0
  -14.7530    8.2590  -12.4670 C   0  0  0  0  0  0  0  0  0  0  0  0
  -14.3550    9.1660  -11.4940 C   0  0  0  0  0  0  0  0  0  0  0  0
  -15.0080    6.9460  -12.0840 C   0  0  0  0  0  0  0  0  0  0  0  0
  -14.2200    8.7750  -10.1720 C   0  0  0  0  0  0  0  0  0  0  0  0
  -14.8660    6.5500  -10.7620 C   0  0  0  0  0  0  0  0  0  0  0  0
  -14.4770    7.4630   -9.8080 C   0  0  0  0  0  0  0  0  0  0  0  0
  -13.8170    9.3300  -15.5100 H   0  0  0  0  0  0  0  0  0  0  0  0
  -15.5110    9.4220  -13.9370 H   0  0  0  0  0  0  0  0  0  0  0  0
  -15.2830    7.9150  -14.3880 H   0  0  0  0  0  0  0  0  0  0  0  0
  -14.1770   10.0470  -11.7320 H   0  0  0  0  0  0  0  0  0  0  0  0
  -15.2770    6.3260  -12.7230 H   0  0  0  0  0  0  0  0  0  0  0  0
  -13.9560    9.3930   -9.5290 H   0  0  0  0  0  0  0  0  0  0  0  0
  -15.0330    5.6670  -10.5210 H   0  0  0  0  0  0  0  0  0  0  0  0
  -14.3870    7.2000   -8.9200 H   0  0  0  0  0  0  0  0  0  0  0  0
  -13.3340   11.4850  -14.3840 N   0  0  0  0  0  0  0  0  0  0  0  0
  -12.7440   12.7000  -13.8150 C   0  0  2  0  0  0  0  0  0  0  0  0
  -13.3340   13.0290  -12.4510 C   0  0  0  0  0  0  0  0  0  0  0  0
  -14.4140   12.5710  -12.0700 O   0  0  0  0  0  0  0  0  0  0  0  0
  -13.0920   13.7770  -14.8460 C   0  0  0  0  0  0  0  0  0  0  0  0
  -14.3900   13.3030  -15.4480 C   0  0  0  0  0  0  0  0  0  0  0  0
  -14.3440   11.7840  -15.4240 C   0  0  0  0  0  0  0  0  0  0  0  0
  -11.7800   12.6200  -13.7420 H   0  0  0  0  0  0  0  0  0  0  0  0
  -13.2020   14.6350  -14.4080 H   0  0  0  0  0  0  0  0  0  0  0  0
  -12.3950   13.8340  -15.5180 H   0  0  0  0  0  0  0  0  0  0  0  0
  -15.1330   13.6300  -14.9170 H   0  0  0  0  0  0  0  0  0  0  0  0
  -14.4640   13.6280  -16.3590 H   0  0  0  0  0  0  0  0  0  0  0  0
  -15.2080   11.4170  -15.1800 H   0  0  0  0  0  0  0  0  0  0  0  0
  -14.0660   11.4340  -16.2850 H   0  0  0  0  0  0  0  0  0  0  0  0
  -12.5970   13.8460  -11.7090 N   0  0  0  0  0  0  0  0  0  0  0  0
  -13.0060   14.2070  -10.3830 C   0  0  2  0  0  0  0  0  0  0  0  0
  -14.1200   15.2640  -10.3540 C   0  0  0  0  0  0  0  0  0  0  0  0
  -14.0460   16.2610  -11.0630 O   0  0  0  0  0  0  0  0  0  0  0  0
  -11.8140   14.7340   -9.5800 C   0  0  0  0  0  0  0  0  0  0  0  0
  -11.8560   14.2000  -11.9620 H   0  0  0  0  0  0  0  0  0  0  0  0
  -13.3550   13.4000   -9.9720 H   0  0  0  0  0  0  0  0  0  0  0  0
  -12.1170   14.9860   -8.6940 H   0  0  0  0  0  0  0  0  0  0  0  0
  -11.1440   14.0350   -9.5130 H   0  0  0  0  0  0  0  0  0  0  0  0
  -11.4430   15.5050  -10.0350 H   0  0  0  0  0  0  0  0  0  0  0  0
  -15.1040   15.0290   -9.4930 N   0  0  0  0  0  0  0  0  0  0  0  0
  -16.1700   15.9860   -9.2010 C   0  0  1  0  0  0  0  0  0  0  0  0
  -17.4920   15.6490   -9.9630 C   0  0  1  0  0  0  0  0  0  0  0  0
  -17.3210   15.8490  -11.4730 C   0  0  0  0  0  0  0  0  0  0  0  0
  -17.7620   14.2970   -9.5870 O   0  0  0  0  0  0  0  0  0  0  0  0
  -19.2190   13.6970   -9.9460 P   0  0  0  0  0  0  0  0  0  0  0  0
  -19.2070   13.2960  -11.3710 O   0  0  0  0  0  0  0  0  0  0  0  0
  -19.2950   12.4180   -8.9820 O   0  0  0  0  0  0  0  0  0  0  0  0
  -20.3380   14.7140   -9.5700 O   0  0  0  0  0  0  0  0  0  0  0  0
  -16.4020   15.9690   -7.7010 C   0  0  0  0  0  0  0  0  0  0  0  0
  -16.0470   14.9940   -7.0040 O   0  0  0  0  0  0  0  0  0  0  0  0
  -16.9510   17.0600   -7.1880 N   0  0  0  0  0  0  0  0  0  0  0  0
  -17.2220   17.1380   -5.7560 C   0  0  2  0  0  0  0  0  0  0  0  0
  -18.6450   17.5210   -5.4180 C   0  0  0  0  0  0  0  0  0  0  0  0
  -19.4360   17.9050   -6.2840 O   0  0  0  0  0  0  0  0  0  0  0  0
  -16.2760   18.1430   -5.0470 C   0  0  0  0  0  0  0  0  0  0  0  0
  -14.8650   17.7200   -5.2260 C   0  0  0  0  0  0  0  0  0  0  0  0
  -16.5080   19.5460   -5.5590 C   0  0  0  0  0  0  0  0  0  0  0  0
  -19.0270   17.4660   -4.2190 O   0  0  0  0  0  0  0  0  0  0  0  0
  -17.1720   17.7580   -7.6390 H   0  0  0  0  0  0  0  0  0  0  0  0
  -17.0740   16.2370   -5.4290 H   0  0  0  0  0  0  0  0  0  0  0  0
  -16.4650   18.1520   -4.0950 H   0  0  0  0  0  0  0  0  0  0  0  0
  -14.2890   18.3200   -4.7270 H   0  0  0  0  0  0  0  0  0  0  0  0
  -14.7620   16.8130   -4.8970 H   0  0  0  0  0  0  0  0  0  0  0  0
  -14.6420   17.7570   -6.1700 H   0  0  0  0  0  0  0  0  0  0  0  0
  -15.7910   20.1190   -5.2470 H   0  0  0  0  0  0  0  0  0  0  0  0
  -16.5210   19.5290   -6.5290 H   0  0  0  0  0  0  0  0  0  0  0  0
  -17.3590   19.8680   -5.2230 H   0  0  0  0  0  0  0  0  0  0  0  0
  2  1  1  0
  3  2  1  0
  4  3  2  0
  5  2  1  0
  6  5  1  0
  7  6  2  0
  8  6  1  0
  9  7  1  0
 10  8  2  0
 11 10  1  0
 11  9  2  0
  2 12  1  6
 13  5  1  0
 14  5  1  0
 15  7  1  0
 16  8  1  0
 17  9  1  0
 18 10  1  0
 19 11  1  0
 20  3  1  0
 21 20  1  0
 22 21  1  0
 23 22  2  0
 24 21  1  0
 25 24  1  0
 26 25  1  0
 26 20  1  0
 21 27  1  1
 28 24  1  0
 29 24  1  0
 30 25  1  0
 31 25  1  0
 32 26  1  0
 33 26  1  0
 34 22  1  0
 35 34  1  0
 36 35  1  0
 37 36  2  0
 38 35  1  0
 39 34  1  0
 35 40  1  1
 41 38  1  0
 42 38  1  0
 43 38  1  0
 44 36  1  0
 45 44  1  1
 46 45  1  0
 46 47  1  6
 48 46  1  0
 49 48  1  0
 50 49  1  0
 51 49  1  0
 52 49  1  0
 53 45  1  0
 54 53  1  0
 55 53  1  0
 56 55  1  0
 57 56  1  0
 58 57  2  0
 59 56  1  0
 60 59  1  0
 61 59  1  0
 62 57  1  0
 63 55  1  0
 56 64  1  1
 65 59  1  0
 66 60  1  0
 67 60  1  0
 68 60  1  0
 69 61  1  0
 70 61  1  0
 71 61  1  0
M  END
$$$$
2QE4
     RDKit          3D

 24 27  0  0  0  0  0  0  0  0999 V2000
   -6.4620    8.4360   26.6260 C   0  0  0  0  0  0  0  0  0  0  0  0
   -5.7230    8.3090   25.4190 C   0  0  0  0  0  0  0  0  0  0  0  0
   -5.8470    7.1600   24.6240 C   0  0  0  0  0  0  0  0  0  0  0  0
   -6.7340    6.0980   25.0240 C   0  0  0  0  0  0  0  0  0  0  0  0
   -6.8220    4.9660   24.1960 O   0  0  0  0  0  0  0  0  0  0  0  0
   -8.0640    4.2460   24.3750 C   0  0  2  0  0  0  0  0  0  0  0  0
   -8.3130    3.8660   25.8760 C   0  0  1  0  0  0  0  0  0  0  0  0
   -7.1390    3.0300   26.4960 C   0  0  0  0  0  0  0  0  0  0  0  0
   -7.0820    3.4560   27.9870 C   0  0  0  0  0  0  0  0  0  0  0  0
   -8.0280    4.6520   28.1620 C   0  0  0  0  0  0  0  0  0  0  0  0
   -8.4400    5.1430   26.7400 C   0  0  1  0  0  0  0  0  0  0  0  0
   -7.4740    6.2350   26.2470 C   0  0  0  0  0  0  0  0  0  0  0  0
   -7.3310    7.4070   27.0320 C   0  0  0  0  0  0  0  0  0  0  0  0
   -8.1190    2.9810   23.5130 C   0  0  0  0  0  0  0  0  0  0  0  0
   -7.0150    2.5600   22.7320 C   0  0  0  0  0  0  0  0  0  0  0  0
   -7.1120    1.3840   21.9550 C   0  0  0  0  0  0  0  0  0  0  0  0
   -8.3140    0.6290   21.9650 C   0  0  0  0  0  0  0  0  0  0  0  0
   -8.4260   -0.5050   21.2310 O   0  0  0  0  0  0  0  0  0  0  0  0
   -9.4020    1.0510   22.7380 C   0  0  0  0  0  0  0  0  0  0  0  0
   -9.3070    2.2150   23.5050 C   0  0  0  0  0  0  0  0  0  0  0  0
   -5.0390    7.0700   23.3360 C   0  0  0  0  0  0  0  0  0  0  0  0
   -5.9120    6.8010   22.2240 O   0  0  0  0  0  0  0  0  0  0  0  0
   -6.0140    8.0040   21.4600 C   0  0  0  0  0  0  0  0  0  0  0  0
   -6.3330    9.5520   27.3890 O   0  0  0  0  0  0  0  0  0  0  0  0
  2  1  1  0
  3  2  1  0
  4  3  1  0
  5  4  1  0
  6  5  1  0
  7  6  1  0
  7  8  1  1
  9  8  1  0
 10  9  1  0
 11  7  1  0
 11 10  1  1
 12 11  1  0
 12  4  1  0
 13 12  1  0
 13  1  1  0
  6 14  1  6
 15 14  1  0
 16 15  1  0
 17 16  1  0
 18 17  1  0
 19 17  1  0
 20 19  1  0
 20 14  1  0
 21  3  1  0
 22 21  1  0
 23 22  1  0
 24  1  1  0
M  END
$$$$
1XP1
     RDKit          3D

 34 38  0  0  0  0  0  0  0  0999 V2000
   31.0200   -0.1590   28.8830 C   0  0  2  0  0  0  0  0  0  0  0  0
   31.2290   -1.6020   28.3540 C   0  0  1  0  0  0  0  0  0  0  0  0
   29.9990   -2.3260   28.6030 O   0  0  0  0  0  0  0  0  0  0  0  0
   28.7870   -1.9020   28.1250 C   0  0  0  0  0  0  0  0  0  0  0  0
   27.8770   -2.9010   27.8170 C   0  0  0  0  0  0  0  0  0  0  0  0
   26.6200   -2.5960   27.2970 C   0  0  0  0  0  0  0  0  0  0  0  0
   26.2510   -1.2290   27.1610 C   0  0  2  0  0  0  0  0  0  0  0  0
   25.0100   -0.9830   26.6580 O   0  0  0  0  0  0  0  0  0  0  0  0
   27.1760   -0.2260   27.4850 C   0  0  0  0  0  0  0  0  0  0  0  0
   28.4710   -0.5330   27.9000 C   0  0  1  0  0  0  0  0  0  0  0  0
   29.4850    0.5350   28.2710 S   0  0  0  0  0  0  0  0  0  0  0  0
   32.3210    0.5570   28.5810 C   0  0  0  0  0  0  0  0  0  0  0  0
   32.5280    1.3640   27.4550 C   0  0  0  0  0  0  0  0  0  0  0  0
   33.7900    1.9610   27.3250 C   0  0  0  0  0  0  0  0  0  0  0  0
   34.8180    1.7460   28.2770 C   0  0  0  0  0  0  0  0  0  0  0  0
   36.0360    2.3080   28.1080 O   0  0  0  0  0  0  0  0  0  0  0  0
   34.6020    0.9470   29.4060 C   0  0  0  0  0  0  0  0  0  0  0  0
   33.3320    0.3420   29.5310 C   0  0  0  0  0  0  0  0  0  0  0  0
   31.6000   -1.7960   26.8740 C   0  0  0  0  0  0  0  0  0  0  0  0
   32.5980   -2.7670   26.6020 C   0  0  0  0  0  0  0  0  0  0  0  0
   33.0380   -3.0360   25.3010 C   0  0  0  0  0  0  0  0  0  0  0  0
   32.4280   -2.3410   24.2250 C   0  0  1  0  0  0  0  0  0  0  0  0
   31.4720   -1.3810   24.4850 C   0  0  0  0  0  0  0  0  0  0  0  0
   31.0490   -1.0880   25.8190 C   0  0  0  0  0  0  0  0  0  0  0  0
   32.8320   -2.5750   22.9510 O   0  0  0  0  0  0  0  0  0  0  0  0
   33.6620   -3.7020   22.6190 C   0  0  0  0  0  0  0  0  0  0  0  0
   33.8330   -3.8100   21.0910 C   0  0  0  0  0  0  0  0  0  0  0  0
   32.6000   -4.0420   20.3000 N   0  0  0  0  0  0  0  0  0  0  0  0
   33.0510   -4.0280   18.8880 C   0  0  0  0  0  0  0  0  0  0  0  0
   31.7120   -3.8610   18.1380 C   0  0  2  0  0  0  0  0  0  0  0  0
   31.8860   -3.5740   16.6460 C   0  0  0  0  0  0  0  0  0  0  0  0
   31.1200   -2.6760   18.9190 C   0  0  1  0  0  0  0  0  0  0  0  0
   29.5960   -2.6780   18.7890 C   0  0  0  0  0  0  0  0  0  0  0  0
   31.6110   -2.9360   20.3690 C   0  0  0  0  0  0  0  0  0  0  0  0
  2  1  1  0
  3  2  1  0
  4  3  1  0
  5  4  1  0
  6  5  1  0
  7  6  1  0
  7  8  1  6
  9  7  1  0
 10  9  1  1
 10  4  1  0
 11 10  1  0
 11  1  1  0
  1 12  1  6
 13 12  1  0
 14 13  1  0
 15 14  1  0
 16 15  1  0
 17 15  1  0
 18 12  1  0
 18 17  1  0
  2 19  1  6
 20 19  1  0
 21 20  1  0
 22 21  1  0
 23 22  1  0
 24 23  1  0
 24 19  1  0
 22 25  1  1
 26 25  1  0
 27 26  1  0
 28 27  1  0
 29 28  1  0
 30 29  1  0
 30 31  1  6
 32 30  1  0
 32 33  1  1
 34 32  1  0
 34 28  1  0
M  END
$$$$
1XQC
     RDKit          3D

 33 38  0  0  0  0  0  0  0  0999 V2000
   18.8540   -0.1960   39.2410 O   0  0  0  0  0  0  0  0  0  0  0  0
   17.6290    0.0460   38.5970 C   0  0  0  0  0  0  0  0  0  0  0  0
   16.5280    0.5650   39.2780 C   0  0  0  0  0  0  0  0  0  0  0  0
   15.3320    0.8090   38.5640 C   0  0  0  0  0  0  0  0  0  0  0  0
   15.2680    0.5430   37.2000 C   0  0  0  0  0  0  0  0  0  0  0  0
   16.3690    0.0200   36.5750 C   0  0  0  0  0  0  0  0  0  0  0  0
   17.5450   -0.2360   37.2650 C   0  0  0  0  0  0  0  0  0  0  0  0
   14.0460    0.7780   36.3970 C   0  0  2  0  0  0  0  0  0  0  0  0
   14.0520    0.5680   34.9440 N   0  0  0  0  0  0  0  0  0  0  0  0
   12.8780    0.7390   34.1870 C   0  0  1  0  0  0  0  0  0  0  0  0
   11.6290    0.3610   34.6890 C   0  0  0  0  0  0  0  0  0  0  0  0
   10.4470    0.5970   33.9230 C   0  0  0  0  0  0  0  0  0  0  0  0
   10.5000    1.2140   32.6800 C   0  0  0  0  0  0  0  0  0  0  0  0
   11.7330    1.6120   32.1640 C   0  0  0  0  0  0  0  0  0  0  0  0
   12.8990    1.3850   32.9160 C   0  0  0  0  0  0  0  0  0  0  0  0
   15.0810   -0.2110   34.3390 C   0  0  0  0  0  0  0  0  0  0  0  0
   16.3700   -0.3080   35.1340 C   0  0  0  0  0  0  0  0  0  0  0  0
   13.9360    2.2900   36.5180 C   0  0  0  0  0  0  0  0  0  0  0  0
   14.9480    3.1820   36.1900 C   0  0  0  0  0  0  0  0  0  0  0  0
   14.7820    4.5700   36.3210 C   0  0  0  0  0  0  0  0  0  0  0  0
   13.5790    5.1390   36.7930 C   0  0  0  0  0  0  0  0  0  0  0  0
   12.6020    4.2140   37.1090 C   0  0  0  0  0  0  0  0  0  0  0  0
   12.7650    2.8330   36.9690 C   0  0  0  0  0  0  0  0  0  0  0  0
   13.3830    6.4520   36.9550 N   0  0  0  0  0  0  0  0  0  0  0  0
   12.0810    6.9150   37.4730 C   0  0  0  0  0  0  0  0  0  0  0  0
   11.8740    8.4370   37.4610 C   0  0  0  0  0  0  0  0  0  0  0  0
   13.0200    9.2050   37.9430 N   0  0  0  0  0  0  0  0  0  0  0  0
   14.2240    8.7620   37.2280 C   0  0  2  0  0  0  0  0  0  0  0  0
   14.4790    7.2890   37.4700 C   0  0  0  0  0  0  0  0  0  0  0  0
   15.3990    9.6160   37.7570 C   0  0  0  0  0  0  0  0  0  0  0  0
   15.0860   11.1190   37.6320 C   0  0  0  0  0  0  0  0  0  0  0  0
   13.7650   11.5030   38.3340 C   0  0  0  0  0  0  0  0  0  0  0  0
   12.7280   10.6250   37.6050 C   0  0  0  0  0  0  0  0  0  0  0  0
  2  1  1  0
  3  2  1  0
  4  3  1  0
  5  4  1  0
  6  5  1  0
  7  6  1  0
  7  2  1  0
  8  5  1  0
  9  8  1  0
 10  9  1  1
 11 10  1  0
 12 11  1  0
 13 12  1  0
 14 13  1  0
 15 14  1  0
 15 10  1  0
 16  9  1  0
 17 16  1  0
 17  6  1  0
  8 18  1  6
 19 18  1  0
 20 19  1  0
 21 20  1  0
 22 21  1  0
 23 22  1  0
 23 18  1  0
 24 21  1  0
 25 24  1  0
 26 25  1  0
 27 26  1  0
 28 27  1  0
 28 29  1  1
 29 24  1  0
 30 28  1  0
 31 30  1  0
 32 31  1  0
 33 27  1  0
 33 32  1  0
M  END
$$$$
2OCF
     RDKit          3D

 20 23  0  0  0  0  0  0  0  0999 V2000
   47.8780  -16.7410    5.1230 C   0  0  0  0  0  0  0  0  0  0  0  0
   49.0010  -17.3110    5.7220 C   0  0  0  0  0  0  0  0  0  0  0  0
   50.2830  -16.9000    5.3620 C   0  0  0  0  0  0  0  0  0  0  0  0
   51.3740  -17.4460    5.9550 O   0  0  0  0  0  0  0  0  0  0  0  0
   50.4720  -15.9230    4.4000 C   0  0  0  0  0  0  0  0  0  0  0  0
   49.3880  -15.3390    3.7700 C   0  0  0  0  0  0  0  0  0  0  0  0
   49.6420  -14.2950    2.7190 C   0  0  0  0  0  0  0  0  0  0  0  0
   48.3920  -14.0400    1.9100 C   0  0  0  0  0  0  0  0  0  0  0  0
   47.2010  -13.8290    2.8240 C   0  0  2  0  0  0  0  0  0  0  0  0
   46.8440  -15.1500    3.4880 C   0  0  1  0  0  0  0  0  0  0  0  0
   48.0240  -15.7500    4.1570 C   0  0  0  0  0  0  0  0  0  0  0  0
   45.6330  -15.0190    4.4150 C   0  0  0  0  0  0  0  0  0  0  0  0
   44.4230  -14.5040    3.6340 C   0  0  0  0  0  0  0  0  0  0  0  0
   44.7720  -13.2110    2.9110 C   0  0  1  0  0  0  0  0  0  0  0  0
   45.9680  -13.4700    2.0150 C   0  0  1  0  0  0  0  0  0  0  0  0
   46.0370  -12.3110    1.0230 C   0  0  0  0  0  0  0  0  0  0  0  0
   44.5970  -11.8100    0.9440 C   0  0  0  0  0  0  0  0  0  0  0  0
   43.7700  -12.6920    1.8820 C   0  0  2  0  0  0  0  0  0  0  0  0
   42.7040  -11.9330    2.4470 O   0  0  0  0  0  0  0  0  0  0  0  0
   45.0650  -12.1580    3.9770 C   0  0  0  0  0  0  0  0  0  0  0  0
  2  1  1  0
  3  2  1  0
  4  3  1  0
  5  3  1  0
  6  5  1  0
  7  6  1  0
  8  7  1  0
  9  8  1  6
 10  9  1  0
 11  1  1  0
 11 10  1  0
 11  6  1  0
 10 12  1  1
 13 12  1  0
 14 13  1  0
 15 14  1  0
 15  9  1  0
 15 16  1  1
 17 16  1  0
 18 17  1  0
 18 14  1  0
 18 19  1  1
 14 20  1  1
M  END
$$$$
8AQZ
     RDKit          3D

 42 43  0  0  0  0  0  0  0  0999 V2000
  -12.6090   -8.0680   14.5580 N   0  0  0  0  0  0  0  0  0  0  0  0
  -13.7360   -9.0380   14.3750 C   0  0  2  0  0  0  0  0  0  0  0  0
  -13.2430  -10.2830   13.6570 C   0  0  0  0  0  0  0  0  0  0  0  0
  -12.4260  -10.1970   12.7430 O   0  0  0  0  0  0  0  0  0  0  0  0
  -14.8580   -8.3590   13.6200 C   0  0  0  0  0  0  0  0  0  0  0  0
  -15.3410   -7.1430   14.3210 C   0  0  0  0  0  0  0  0  0  0  0  0
  -15.9110   -7.2580   15.5860 C   0  0  0  0  0  0  0  0  0  0  0  0
  -15.1680   -5.8700   13.7750 C   0  0  0  0  0  0  0  0  0  0  0  0
  -16.3660   -6.1340   16.2650 C   0  0  0  0  0  0  0  0  0  0  0  0
  -15.6190   -4.7450   14.4510 C   0  0  0  0  0  0  0  0  0  0  0  0
  -16.2270   -4.8800   15.6890 C   0  0  0  0  0  0  0  0  0  0  0  0
  -13.6580  -11.4830   14.1040 N   0  0  0  0  0  0  0  0  0  0  0  0
  -13.0740  -12.7060   13.5760 C   0  0  2  0  0  0  0  0  0  0  0  0
  -13.6510  -13.0710   12.2020 C   0  0  0  0  0  0  0  0  0  0  0  0
  -14.7290  -12.6640   11.8390 O   0  0  0  0  0  0  0  0  0  0  0  0
  -13.3930  -13.7350   14.6550 C   0  0  0  0  0  0  0  0  0  0  0  0
  -14.7070  -13.2670   15.2000 C   0  0  0  0  0  0  0  0  0  0  0  0
  -14.6210  -11.7520   15.1830 C   0  0  0  0  0  0  0  0  0  0  0  0
  -12.9060  -13.8810   11.4840 N   0  0  0  0  0  0  0  0  0  0  0  0
  -13.2750  -14.2810   10.1600 C   0  0  2  0  0  0  0  0  0  0  0  0
  -14.3890  -15.3210   10.1900 C   0  0  0  0  0  0  0  0  0  0  0  0
  -14.3350  -16.2840   10.9510 O   0  0  0  0  0  0  0  0  0  0  0  0
  -12.0750  -14.8800    9.4530 C   0  0  0  0  0  0  0  0  0  0  0  0
  -15.3960  -15.1000    9.3450 N   0  0  0  0  0  0  0  0  0  0  0  0
  -16.4760  -16.0610    9.0590 C   0  0  1  0  0  0  0  0  0  0  0  0
  -17.7460  -15.7460    9.8590 C   0  0  1  0  0  0  0  0  0  0  0  0
  -17.5320  -15.8810   11.3480 C   0  0  0  0  0  0  0  0  0  0  0  0
  -18.1130  -14.3810    9.5100 O   0  0  0  0  0  0  0  0  0  0  0  0
  -19.5410  -13.7400    9.8740 P   0  0  0  0  0  0  0  0  0  0  0  0
  -19.6020  -12.5210    8.9690 O   0  0  0  0  0  0  0  0  0  0  0  0
  -19.5130  -13.3890   11.3440 O   0  0  0  0  0  0  0  0  0  0  0  0
  -20.5880  -14.7790    9.6050 O   0  0  0  0  0  0  0  0  0  0  0  0
  -16.7040  -16.0980    7.5530 C   0  0  0  0  0  0  0  0  0  0  0  0
  -16.3720  -15.1250    6.8760 O   0  0  0  0  0  0  0  0  0  0  0  0
  -17.2800  -17.1910    7.0750 N   0  0  0  0  0  0  0  0  0  0  0  0
  -17.6020  -17.3000    5.6550 C   0  0  2  0  0  0  0  0  0  0  0  0
  -19.0210  -17.5650    5.3340 C   0  0  0  0  0  0  0  0  0  0  0  0
  -19.7520  -17.9930    6.1930 O   0  0  0  0  0  0  0  0  0  0  0  0
  -16.7450  -18.3630    4.9470 C   0  0  0  0  0  0  0  0  0  0  0  0
  -15.2950  -17.9580    5.0180 C   0  0  0  0  0  0  0  0  0  0  0  0
  -17.0100  -19.7500    5.5020 C   0  0  0  0  0  0  0  0  0  0  0  0
  -19.4410  -17.4050    4.1570 O   0  0  0  0  0  0  0  0  0  0  0  0
  2  1  1  6
  3  2  1  0
  4  3  2  0
  5  2  1  0
  6  5  1  0
  7  6  2  0
  8  6  1  0
  9  7  1  0
 10  8  2  0
 11  9  2  0
 11 10  1  0
 12  3  1  0
 13 12  1  0
 13 14  1  6
 15 14  2  0
 16 13  1  0
 17 16  1  0
 18 17  1  0
 18 12  1  0
 19 14  1  0
 20 19  1  0
 21 20  1  0
 22 21  2  0
 20 23  1  1
 24 21  1  0
 25 24  1  6
 26 25  1  0
 26 27  1  1
 28 26  1  0
 29 28  1  0
 30 29  1  0
 31 29  1  0
 32 29  1  0
 33 25  1  0
 34 33  1  0
 35 33  1  0
 36 35  1  1
 37 36  1  0
 38 37  2  0
 39 36  1  0
 40 39  1  0
 41 39  1  0
 42 37  1  0
M  END
$$$$
9I6U
     RDKit          3D

 42 43  0  0  0  0  0  0  0  0999 V2000
   12.7770    8.1940   14.9880 N   0  0  0  0  0  0  0  0  0  0  0  0
   13.7360    9.2950   14.8680 C   0  0  2  0  0  0  0  0  0  0  0  0
   13.0670   10.5100   14.2350 C   0  0  0  0  0  0  0  0  0  0  0  0
   12.2040   10.3770   13.3660 O   0  0  0  0  0  0  0  0  0  0  0  0
   14.9630    8.8470   14.0480 C   0  0  0  0  0  0  0  0  0  0  0  0
   15.6850    7.6720   14.6530 C   0  0  0  0  0  0  0  0  0  0  0  0
   16.5670    7.8470   15.7050 C   0  0  0  0  0  0  0  0  0  0  0  0
   15.4490    6.3850   14.1990 C   0  0  0  0  0  0  0  0  0  0  0  0
   17.2210    6.7580   16.2690 C   0  0  0  0  0  0  0  0  0  0  0  0
   16.1030    5.2980   14.7650 C   0  0  0  0  0  0  0  0  0  0  0  0
   16.9800    5.4900   15.7990 C   0  0  0  0  0  0  0  0  0  0  0  0
   13.4310   11.7390   14.6550 N   0  0  0  0  0  0  0  0  0  0  0  0
   12.8740   12.9350   14.0360 C   0  0  2  0  0  0  0  0  0  0  0  0
   13.4520   13.2160   12.6470 C   0  0  0  0  0  0  0  0  0  0  0  0
   14.5340   12.7320   12.2860 O   0  0  0  0  0  0  0  0  0  0  0  0
   13.2530   14.0110   15.0290 C   0  0  0  0  0  0  0  0  0  0  0  0
   14.5660   13.5510   15.5730 C   0  0  0  0  0  0  0  0  0  0  0  0
   14.4410   12.0510   15.6850 C   0  0  0  0  0  0  0  0  0  0  0  0
   12.7450   14.0540   11.8910 N   0  0  0  0  0  0  0  0  0  0  0  0
   13.1300   14.4110   10.5380 C   0  0  2  0  0  0  0  0  0  0  0  0
   14.2610   15.4380   10.5120 C   0  0  0  0  0  0  0  0  0  0  0  0
   14.2100   16.4260   11.2380 O   0  0  0  0  0  0  0  0  0  0  0  0
   11.9370   14.9920    9.7960 C   0  0  0  0  0  0  0  0  0  0  0  0
   15.2640   15.1650    9.6680 N   0  0  0  0  0  0  0  0  0  0  0  0
   16.3260   16.1010    9.3280 C   0  0  1  0  0  0  0  0  0  0  0  0
   17.6370   15.7840   10.0630 C   0  0  1  0  0  0  0  0  0  0  0  0
   17.5060   15.9460   11.5600 C   0  0  0  0  0  0  0  0  0  0  0  0
   17.9820   14.3970    9.7370 O   0  0  0  0  0  0  0  0  0  0  0  0
   19.4200   13.7550   10.0730 P   0  0  0  0  0  0  0  0  0  0  0  0
   19.4670   13.3880   11.5420 O   0  0  0  0  0  0  0  0  0  0  0  0
   19.4840   12.5460    9.1720 O   0  0  0  0  0  0  0  0  0  0  0  0
   20.4670   14.8120    9.7540 O   0  0  0  0  0  0  0  0  0  0  0  0
   16.5110   16.0810    7.8140 C   0  0  0  0  0  0  0  0  0  0  0  0
   16.0920   15.1280    7.1560 O   0  0  0  0  0  0  0  0  0  0  0  0
   17.1560   17.1300    7.2800 N   0  0  0  0  0  0  0  0  0  0  0  0
   17.4050   17.2220    5.8550 C   0  0  2  0  0  0  0  0  0  0  0  0
   18.8520   17.4730    5.5270 C   0  0  0  0  0  0  0  0  0  0  0  0
   19.6520   17.8670    6.3840 O   0  0  0  0  0  0  0  0  0  0  0  0
   16.5390   18.2930    5.2020 C   0  0  0  0  0  0  0  0  0  0  0  0
   15.0590   17.9270    5.2850 C   0  0  0  0  0  0  0  0  0  0  0  0
   16.8390   19.6680    5.7860 C   0  0  0  0  0  0  0  0  0  0  0  0
   19.2220   17.2740    4.3670 O   0  0  0  0  0  0  0  0  0  0  0  0
  2  1  1  6
  3  2  1  0
  4  3  2  0
  5  2  1  0
  6  5  1  0
  7  6  2  0
  8  6  1  0
  9  7  1  0
 10  8  2  0
 11 10  1  0
 11  9  2  0
 12  3  1  0
 13 12  1  0
 13 14  1  6
 15 14  2  0
 16 13  1  0
 17 16  1  0
 18 17  1  0
 18 12  1  0
 19 14  1  0
 20 19  1  0
 21 20  1  0
 22 21  2  0
 20 23  1  1
 24 21  1  0
 25 24  1  6
 26 25  1  0
 26 27  1  1
 28 26  1  0
 29 28  1  0
 30 29  1  0
 31 29  1  0
 32 29  1  0
 33 25  1  0
 34 33  1  0
 35 33  1  0
 36 35  1  1
 37 36  1  0
 38 37  2  0
 39 36  1  0
 40 39  1  0
 41 39  1  0
 42 37  1  0
M  END
$$$$
9I70
     RDKit          3D

 42 43  0  0  0  0  0  0  0  0999 V2000
  -12.6650   -8.1480   14.9860 N   0  0  0  0  0  0  0  0  0  0  0  0
  -13.6720   -9.1890   14.7800 C   0  0  2  0  0  0  0  0  0  0  0  0
  -13.0450  -10.4070   14.1110 C   0  0  0  0  0  0  0  0  0  0  0  0
  -12.2190  -10.2840   13.2090 O   0  0  0  0  0  0  0  0  0  0  0  0
  -14.8470   -8.6480   13.9500 C   0  0  0  0  0  0  0  0  0  0  0  0
  -15.6270   -7.6000   14.6970 C   0  0  0  0  0  0  0  0  0  0  0  0
  -16.5300   -7.9580   15.6850 C   0  0  0  0  0  0  0  0  0  0  0  0
  -15.4210   -6.2520   14.4500 C   0  0  0  0  0  0  0  0  0  0  0  0
  -17.2360   -6.9890   16.3820 C   0  0  0  0  0  0  0  0  0  0  0  0
  -16.1280   -5.2870   15.1510 C   0  0  0  0  0  0  0  0  0  0  0  0
  -17.0260   -5.6610   16.1140 C   0  0  0  0  0  0  0  0  0  0  0  0
  -13.4190  -11.6310   14.5270 N   0  0  0  0  0  0  0  0  0  0  0  0
  -12.8600  -12.8290   13.9200 C   0  0  2  0  0  0  0  0  0  0  0  0
  -13.4320  -13.1270   12.5400 C   0  0  0  0  0  0  0  0  0  0  0  0
  -14.4980  -12.6450   12.1780 O   0  0  0  0  0  0  0  0  0  0  0  0
  -13.2090  -13.9010   14.9430 C   0  0  0  0  0  0  0  0  0  0  0  0
  -14.5220  -13.4440   15.4920 C   0  0  0  0  0  0  0  0  0  0  0  0
  -14.3920  -11.9380   15.5880 C   0  0  0  0  0  0  0  0  0  0  0  0
  -12.7190  -13.9580   11.7960 N   0  0  0  0  0  0  0  0  0  0  0  0
  -13.0940  -14.3250   10.4470 C   0  0  2  0  0  0  0  0  0  0  0  0
  -14.2330  -15.3390   10.4480 C   0  0  0  0  0  0  0  0  0  0  0  0
  -14.1900  -16.3190   11.1820 O   0  0  0  0  0  0  0  0  0  0  0  0
  -11.8970  -14.9170    9.7200 C   0  0  0  0  0  0  0  0  0  0  0  0
  -15.2200  -15.0790    9.5870 N   0  0  0  0  0  0  0  0  0  0  0  0
  -16.2670  -16.0280    9.2640 C   0  0  1  0  0  0  0  0  0  0  0  0
  -17.5710  -15.7180   10.0140 C   0  0  1  0  0  0  0  0  0  0  0  0
  -17.4250  -15.8540   11.5110 C   0  0  0  0  0  0  0  0  0  0  0  0
  -17.9220  -14.3380    9.6650 O   0  0  0  0  0  0  0  0  0  0  0  0
  -19.3530  -13.6870   10.0120 P   0  0  0  0  0  0  0  0  0  0  0  0
  -19.3710  -13.3280   11.4710 O   0  0  0  0  0  0  0  0  0  0  0  0
  -19.4060  -12.4810    9.1090 O   0  0  0  0  0  0  0  0  0  0  0  0
  -20.3900  -14.7350    9.6980 O   0  0  0  0  0  0  0  0  0  0  0  0
  -16.4870  -16.0130    7.7550 C   0  0  0  0  0  0  0  0  0  0  0  0
  -16.0940  -15.0560    7.0860 O   0  0  0  0  0  0  0  0  0  0  0  0
  -17.1070  -17.0820    7.2400 N   0  0  0  0  0  0  0  0  0  0  0  0
  -17.3880  -17.1850    5.8170 C   0  0  2  0  0  0  0  0  0  0  0  0
  -18.8400  -17.4200    5.5040 C   0  0  0  0  0  0  0  0  0  0  0  0
  -19.6090  -17.8090    6.3800 O   0  0  0  0  0  0  0  0  0  0  0  0
  -16.5560  -18.2620    5.1510 C   0  0  0  0  0  0  0  0  0  0  0  0
  -15.0750  -17.9260    5.2100 C   0  0  0  0  0  0  0  0  0  0  0  0
  -16.8390  -19.6320    5.7310 C   0  0  0  0  0  0  0  0  0  0  0  0
  -19.2440  -17.2450    4.3370 O   0  0  0  0  0  0  0  0  0  0  0  0
  2  1  1  6
  3  2  1  0
  4  3  2  0
  5  2  1  0
  6  5  1  0
  7  6  2  0
  8  6  1  0
  9  7  1  0
 10  8  2  0
 11  9  2  0
 11 10  1  0
 12  3  1  0
 13 12  1  0
 13 14  1  6
 15 14  2  0
 16 13  1  0
 17 16  1  0
 18 17  1  0
 18 12  1  0
 19 14  1  0
 20 19  1  0
 21 20  1  0
 22 21  2  0
 20 23  1  1
 24 21  1  0
 25 24  1  6
 26 25  1  0
 26 27  1  1
 28 26  1  0
 29 28  1  0
 30 29  1  0
 31 29  1  0
 32 29  1  0
 33 25  1  0
 34 33  1  0
 35 33  1  0
 36 35  1  1
 37 36  1  0
 38 37  2  0
 39 36  1  0
 40 39  1  0
 41 39  1  0
 42 37  1  0
M  END
$$$$
6TJM
     RDKit          3D

 76 77  0  0  0  0  0  0  0  0999 V2000
   16.1190    9.8860   31.0280 N   0  0  0  0  0  0  0  0  0  0  0  0
   15.9440   10.7780   29.8850 C   0  0  2  0  0  0  0  0  0  0  0  0
   16.4280   10.0950   28.6030 C   0  0  0  0  0  0  0  0  0  0  0  0
   17.2790    9.2050   28.6630 O   0  0  0  0  0  0  0  0  0  0  0  0
   16.7000   12.0870   30.1140 C   0  0  0  0  0  0  0  0  0  0  0  0
   15.9270   13.0990   30.9040 C   0  0  0  0  0  0  0  0  0  0  0  0
   16.1010   13.2100   32.2720 C   0  0  0  0  0  0  0  0  0  0  0  0
   15.0250   13.9390   30.2760 C   0  0  0  0  0  0  0  0  0  0  0  0
   15.3920   14.1390   32.9950 C   0  0  0  0  0  0  0  0  0  0  0  0
   14.3150   14.8710   30.9950 C   0  0  0  0  0  0  0  0  0  0  0  0
   14.4940   14.9690   32.3540 C   0  0  0  0  0  0  0  0  0  0  0  0
   15.0050   10.9960   29.7780 H   0  0  0  0  0  0  0  0  0  0  0  0
   17.5170   11.8940   30.5990 H   0  0  0  0  0  0  0  0  0  0  0  0
   16.9090   12.4800   29.2530 H   0  0  0  0  0  0  0  0  0  0  0  0
   16.7040   12.6510   32.7070 H   0  0  0  0  0  0  0  0  0  0  0  0
   14.8970   13.8720   29.3570 H   0  0  0  0  0  0  0  0  0  0  0  0
   15.5170   14.2090   33.9140 H   0  0  0  0  0  0  0  0  0  0  0  0
   13.7140   15.4340   30.5620 H   0  0  0  0  0  0  0  0  0  0  0  0
   14.0100   15.5960   32.8420 H   0  0  0  0  0  0  0  0  0  0  0  0
   15.8870   10.5030   27.4530 N   0  0  0  0  0  0  0  0  0  0  0  0
   16.3720    9.9610   26.1790 C   0  0  2  0  0  0  0  0  0  0  0  0
   17.7630   10.4960   25.8770 C   0  0  0  0  0  0  0  0  0  0  0  0
   18.1800   11.5360   26.3840 O   0  0  0  0  0  0  0  0  0  0  0  0
   15.3400   10.4650   25.1630 C   0  0  0  0  0  0  0  0  0  0  0  0
   14.8570   11.7730   25.7380 C   0  0  0  0  0  0  0  0  0  0  0  0
   14.9910   11.6610   27.2530 C   0  0  0  0  0  0  0  0  0  0  0  0
   16.3750    8.9920   26.1730 H   0  0  0  0  0  0  0  0  0  0  0  0
   15.7610   10.5970   24.2990 H   0  0  0  0  0  0  0  0  0  0  0  0
   14.6130    9.8280   25.0840 H   0  0  0  0  0  0  0  0  0  0  0  0
   15.4060   12.4980   25.4010 H   0  0  0  0  0  0  0  0  0  0  0  0
   13.9300   11.9150   25.4880 H   0  0  0  0  0  0  0  0  0  0  0  0
   15.3860   12.4660   27.6220 H   0  0  0  0  0  0  0  0  0  0  0  0
   14.1260   11.4980   27.6610 H   0  0  0  0  0  0  0  0  0  0  0  0
   18.4850    9.7720   25.0330 N   0  0  0  0  0  0  0  0  0  0  0  0
   19.8630   10.1350   24.7210 C   0  0  2  0  0  0  0  0  0  0  0  0
   19.9360   11.2360   23.6630 C   0  0  0  0  0  0  0  0  0  0  0  0
   19.2280   11.1980   22.6630 O   0  0  0  0  0  0  0  0  0  0  0  0
   20.6360    8.8940   24.2560 C   0  0  0  0  0  0  0  0  0  0  0  0
   18.2030    9.0680   24.6270 H   0  0  0  0  0  0  0  0  0  0  0  0
   20.2830   10.4800   25.5250 H   0  0  0  0  0  0  0  0  0  0  0  0
   21.5410    9.1540   24.0230 H   0  0  0  0  0  0  0  0  0  0  0  0
   20.6540    8.2440   24.9760 H   0  0  0  0  0  0  0  0  0  0  0  0
   20.1910    8.5170   23.4810 H   0  0  0  0  0  0  0  0  0  0  0  0
   20.7970   12.2260   23.8930 N   0  0  0  0  0  0  0  0  0  0  0  0
   21.1100   13.2490   22.8860 C   0  0  1  0  0  0  0  0  0  0  0  0
   20.4430   14.5880   23.2240 C   0  0  1  0  0  0  0  0  0  0  0  0
   18.9360   14.4210   23.1140 C   0  0  2  0  0  0  0  0  0  0  0  0
   20.8710   14.8510   24.5470 O   0  0  0  0  0  0  0  0  0  0  0  0
   20.6200   16.3520   25.0590 P   0  0  0  0  0  0  0  0  0  0  0  0
   21.0040   17.4580   23.9510 O   0  0  0  0  0  0  0  0  0  0  0  0
   21.5580   16.5460   26.3540 O   0  0  0  0  0  0  0  0  0  0  0  0
   19.2030   16.4980   25.4650 O   0  0  0  0  0  0  0  0  0  0  0  0
   22.6430   13.3610   22.8490 C   0  0  0  0  0  0  0  0  0  0  0  0
   23.3370   12.8930   23.7710 O   0  0  0  0  0  0  0  0  0  0  0  0
   20.7590   13.0150   22.0010 H   0  0  0  0  0  0  0  0  0  0  0  0
   20.7060   15.4120   22.5600 H   0  0  0  0  0  0  0  0  0  0  0  0
   18.4470   15.3660   23.3490 H   0  0  0  0  0  0  0  0  0  0  0  0
   18.6020   13.6560   23.8160 H   0  0  0  0  0  0  0  0  0  0  0  0
   18.6750   14.1200   22.0990 H   0  0  0  0  0  0  0  0  0  0  0  0
   23.1720   13.9790   21.8010 N   0  0  0  0  0  0  0  0  0  0  0  0
   24.6080   14.2430   21.7360 C   0  0  2  0  0  0  0  0  0  0  0  0
   24.8690   15.7070   21.4030 C   0  0  0  0  0  0  0  0  0  0  0  0
   23.9420   16.4380   21.0310 O   0  0  0  0  0  0  0  0  0  0  0  0
   25.3110   13.3390   20.7050 C   0  0  0  0  0  0  0  0  0  0  0  0
   25.1370   11.8710   21.0760 C   0  0  0  0  0  0  0  0  0  0  0  0
   24.7720   13.6080   19.3070 C   0  0  0  0  0  0  0  0  0  0  0  0
   25.9920   16.1990   21.5070 O   0  0  0  0  0  0  0  0  0  0  0  0
   22.7270   14.2540   21.1190 H   0  0  0  0  0  0  0  0  0  0  0  0
   24.9830   14.0490   22.6100 H   0  0  0  0  0  0  0  0  0  0  0  0
   26.2600   13.5390   20.7060 H   0  0  0  0  0  0  0  0  0  0  0  0
   25.0620   11.7960   22.0410 H   0  0  0  0  0  0  0  0  0  0  0  0
   24.3320   11.5320   20.6540 H   0  0  0  0  0  0  0  0  0  0  0  0
   25.9090   11.3730   20.7650 H   0  0  0  0  0  0  0  0  0  0  0  0
   23.9320   14.0870   19.3800 H   0  0  0  0  0  0  0  0  0  0  0  0
   25.4170   14.1420   18.8180 H   0  0  0  0  0  0  0  0  0  0  0  0
   24.6320   12.7620   18.8540 H   0  0  0  0  0  0  0  0  0  0  0  0
  2  1  1  0
  3  2  1  0
  4  3  2  0
  5  2  1  0
  6  5  1  0
  7  6  2  0
  8  6  1  0
  9  7  1  0
 10  8  2  0
 11 10  1  0
 11  9  2  0
  2 12  1  6
 13  5  1  0
 14  5  1  0
 15  7  1  0
 16  8  1  0
 17  9  1  0
 18 10  1  0
 19 11  1  0
 20  3  1  0
 21 20  1  0
 22 21  1  0
 23 22  2  0
 24 21  1  0
 25 24  1  0
 26 20  1  0
 26 25  1  0
 21 27  1  1
 28 24  1  0
 29 24  1  0
 30 25  1  0
 31 25  1  0
 32 26  1  0
 33 26  1  0
 34 22  1  0
 35 34  1  0
 36 35  1  0
 37 36  2  0
 38 35  1  0
 39 34  1  0
 35 40  1  1
 41 38  1  0
 42 38  1  0
 43 38  1  0
 44 36  1  0
 45 44  1  0
 46 45  1  0
 47 46  1  0
 48 46  1  0
 49 48  1  0
 50 49  1  0
 51 49  1  0
 52 49  1  0
 53 45  1  0
 54 53  1  0
 45 55  1  6
 46 56  1  6
 47 57  1  1
 58 47  1  0
 59 47  1  0
 60 53  1  0
 61 60  1  0
 62 61  1  0
 63 62  2  0
 64 61  1  0
 65 64  1  0
 66 64  1  0
 67 62  1  0
 68 60  1  0
 61 69  1  1
 70 64  1  0
 71 65  1  0
 72 65  1  0
 73 65  1  0
 74 66  1  0
 75 66  1  0
 76 66  1  0
M  END
$$$$
5DRM
     RDKit          3D

 79 79  0  0  0  0  0  0  0  0999 V2000
    2.5530  -18.9170   -9.7970 N   0  0  0  0  0  0  0  0  0  0  0  0
    2.3710  -17.4750   -9.9190 C   0  0  2  0  0  0  0  0  0  0  0  0
    3.4510  -16.8560  -10.8000 C   0  0  0  0  0  0  0  0  0  0  0  0
    4.4790  -17.4790  -11.0660 O   0  0  0  0  0  0  0  0  0  0  0  0
    2.3670  -16.8160   -8.5380 C   0  0  0  0  0  0  0  0  0  0  0  0
    1.1930  -17.2300   -7.6640 C   0  0  0  0  0  0  0  0  0  0  0  0
    1.1860  -16.4850   -6.3380 C   0  0  0  0  0  0  0  0  0  0  0  0
    2.3880  -16.8530   -5.4850 C   0  0  0  0  0  0  0  0  0  0  0  0
    2.3370  -16.1960   -4.1480 N   0  0  0  0  0  0  0  0  0  0  0  0
    3.2080  -15.6290  -11.2490 N   0  0  0  0  0  0  0  0  0  0  0  0
    4.1280  -14.9390  -12.1480 C   0  0  2  0  0  0  0  0  0  0  0  0
    5.4690  -14.6570  -11.4770 C   0  0  0  0  0  0  0  0  0  0  0  0
    6.5230  -14.7970  -12.1000 O   0  0  0  0  0  0  0  0  0  0  0  0
    3.5250  -13.6150  -12.6550 C   0  0  2  0  0  0  0  0  0  0  0  0
    2.1810  -13.8720  -13.3400 C   0  0  0  0  0  0  0  0  0  0  0  0
    4.4830  -12.9160  -13.6090 C   0  0  0  0  0  0  0  0  0  0  0  0
    1.5200  -12.6220  -13.8760 C   0  0  0  0  0  0  0  0  0  0  0  0
    5.4240  -14.2710  -10.2050 N   0  0  0  0  0  0  0  0  0  0  0  0
    6.6380  -13.9680   -9.4530 C   0  0  2  0  0  0  0  0  0  0  0  0
    7.5480  -15.1920   -9.3680 C   0  0  0  0  0  0  0  0  0  0  0  0
    8.7730  -15.0650   -9.3870 O   0  0  0  0  0  0  0  0  0  0  0  0
    6.2910  -13.4640   -8.0520 C   0  0  0  0  0  0  0  0  0  0  0  0
    7.4680  -13.0030   -7.1900 C   0  0  0  0  0  0  0  0  0  0  0  0
    8.3220  -11.9950   -7.9410 C   0  0  0  0  0  0  0  0  0  0  0  0
    6.9720  -12.4090   -5.8840 C   0  0  0  0  0  0  0  0  0  0  0  0
    6.9410  -16.3730   -9.2770 N   0  0  0  0  0  0  0  0  0  0  0  0
    7.6860  -17.6260   -9.3440 C   0  0  2  0  0  0  0  0  0  0  0  0
    8.4280  -17.7400  -10.6700 C   0  0  0  0  0  0  0  0  0  0  0  0
    9.6280  -18.0150  -10.7020 O   0  0  0  0  0  0  0  0  0  0  0  0
    6.7520  -18.8280   -9.1750 C   0  0  0  0  0  0  0  0  0  0  0  0
    6.4760  -19.1920   -7.7490 C   0  0  0  0  0  0  0  0  0  0  0  0
    5.3390  -18.7880   -7.0840 N   0  0  0  0  0  0  0  0  0  0  0  0
    7.1870  -19.9300   -6.8650 C   0  0  0  0  0  0  0  0  0  0  0  0
    5.3630  -19.2590   -5.8490 C   0  0  0  0  0  0  0  0  0  0  0  0
    6.4740  -19.9550   -5.6910 N   0  0  0  0  0  0  0  0  0  0  0  0
    7.6980  -17.5250  -11.7610 N   0  0  0  0  0  0  0  0  0  0  0  0
    8.2490  -17.6360  -13.1070 C   0  0  2  0  0  0  0  0  0  0  0  0
    9.3860  -16.6470  -13.3430 C   0  0  0  0  0  0  0  0  0  0  0  0
   10.4120  -16.9950  -13.9270 O   0  0  0  0  0  0  0  0  0  0  0  0
    7.1500  -17.4200  -14.1510 C   0  0  0  0  0  0  0  0  0  0  0  0
    6.0290  -18.4460  -14.1070 C   0  0  0  0  0  0  0  0  0  0  0  0
    4.9490  -18.1240  -15.1300 C   0  0  0  0  0  0  0  0  0  0  0  0
    3.9720  -19.2030  -15.2600 N   0  0  0  0  0  0  0  0  0  0  0  0
    2.8350  -19.2720  -14.5760 C   0  0  0  0  0  0  0  0  0  0  0  0
    2.5210  -18.3210  -13.7060 N   0  0  0  0  0  0  0  0  0  0  0  0
    2.0090  -20.2920  -14.7630 N   0  0  0  0  0  0  0  0  0  0  0  0
    9.1960  -15.4150  -12.8850 N   0  0  0  0  0  0  0  0  0  0  0  0
   10.1840  -14.3620  -13.0910 C   0  0  2  0  0  0  0  0  0  0  0  0
   11.4580  -14.6160  -12.2900 C   0  0  0  0  0  0  0  0  0  0  0  0
   12.5600  -14.3450  -12.7640 O   0  0  0  0  0  0  0  0  0  0  0  0
    9.5930  -12.9990  -12.7250 C   0  0  0  0  0  0  0  0  0  0  0  0
    8.4100  -12.5500  -13.5870 C   0  0  0  0  0  0  0  0  0  0  0  0
    7.9070  -11.1810  -13.1610 C   0  0  0  0  0  0  0  0  0  0  0  0
    8.7910  -12.5500  -15.0600 C   0  0  0  0  0  0  0  0  0  0  0  0
   11.3020  -15.1410  -11.0780 N   0  0  0  0  0  0  0  0  0  0  0  0
   12.4470  -15.4410  -10.2230 C   0  0  2  0  0  0  0  0  0  0  0  0
   13.3130  -16.5520  -10.8100 C   0  0  0  0  0  0  0  0  0  0  0  0
   14.5290  -16.5630  -10.6250 O   0  0  0  0  0  0  0  0  0  0  0  0
   11.9800  -15.8250   -8.8170 C   0  0  0  0  0  0  0  0  0  0  0  0
   11.7340  -14.6650   -7.8500 C   0  0  0  0  0  0  0  0  0  0  0  0
   11.0980  -15.1610   -6.5640 C   0  0  0  0  0  0  0  0  0  0  0  0
   13.0360  -13.9390   -7.5530 C   0  0  0  0  0  0  0  0  0  0  0  0
   12.6830  -17.4830  -11.5200 N   0  0  0  0  0  0  0  0  0  0  0  0
   13.4100  -18.5760  -12.1550 C   0  0  2  0  0  0  0  0  0  0  0  0
   14.0520  -18.1310  -13.4640 C   0  0  0  0  0  0  0  0  0  0  0  0
   15.1350  -18.5950  -13.8220 O   0  0  0  0  0  0  0  0  0  0  0  0
   12.4820  -19.7680  -12.4010 C   0  0  0  0  0  0  0  0  0  0  0  0
   12.1310  -20.5390  -11.1430 C   0  0  0  0  0  0  0  0  0  0  0  0
   11.2810  -21.7620  -11.4230 C   0  0  0  0  0  0  0  0  0  0  0  0
   11.5740  -22.8580  -10.9430 O   0  0  0  0  0  0  0  0  0  0  0  0
   10.2190  -21.5810  -12.1980 N   0  0  0  0  0  0  0  0  0  0  0  0
   13.3810  -17.2310  -14.1730 N   0  0  0  0  0  0  0  0  0  0  0  0
   13.9060  -16.7040  -15.4280 C   0  0  2  0  0  0  0  0  0  0  0  0
   14.6810  -15.4100  -15.1990 C   0  0  0  0  0  0  0  0  0  0  0  0
   15.4540  -15.2960  -14.2470 O   0  0  0  0  0  0  0  0  0  0  0  0
   12.7720  -16.4700  -16.4300 C   0  0  0  0  0  0  0  0  0  0  0  0
   12.1010  -17.7600  -16.8640 C   0  0  0  0  0  0  0  0  0  0  0  0
   12.7520  -18.8240  -16.7930 O   0  0  0  0  0  0  0  0  0  0  0  0
   10.9240  -17.7120  -17.2810 O   0  0  0  0  0  0  0  0  0  0  0  0
  2  1  1  1
  3  2  1  0
  4  3  2  0
  5  2  1  0
  6  5  1  0
  7  6  1  0
  8  7  1  0
  9  8  1  0
 10  3  1  0
 11 10  1  1
 12 11  1  0
 13 12  2  0
 14 11  1  0
 15 14  1  0
 14 16  1  6
 17 15  1  0
 18 12  1  0
 19 18  1  0
 20 19  1  0
 21 20  2  0
 19 22  1  1
 23 22  1  0
 24 23  1  0
 25 23  1  0
 26 20  1  0
 27 26  1  0
 28 27  1  0
 29 28  2  0
 27 30  1  6
 31 30  1  0
 32 31  1  0
 33 31  2  0
 34 32  2  0
 35 34  1  0
 35 33  1  0
 36 28  1  0
 37 36  1  0
 38 37  1  0
 39 38  2  0
 37 40  1  6
 41 40  1  0
 42 41  1  0
 43 42  1  0
 44 43  1  0
 45 44  1  0
 46 44  2  0
 47 38  1  0
 48 47  1  0
 49 48  1  0
 50 49  2  0
 48 51  1  1
 52 51  1  0
 53 52  1  0
 54 52  1  0
 55 49  1  0
 56 55  1  0
 57 56  1  0
 58 57  2  0
 56 59  1  1
 60 59  1  0
 61 60  1  0
 62 60  1  0
 63 57  1  0
 64 63  1  0
 65 64  1  0
 66 65  2  0
 64 67  1  6
 68 67  1  0
 69 68  1  0
 70 69  2  0
 71 69  1  0
 72 65  1  0
 73 72  1  0
 74 73  1  0
 75 74  2  0
 73 76  1  6
 77 76  1  0
 78 77  2  0
 79 77  1  0
M  END
$$$$
6VGH
     RDKit          3D

 31 35  0  0  0  0  0  0  0  0999 V2000
  -45.9610   24.9750  -13.6690 C   0  0  1  0  0  0  0  0  0  0  0  0
  -45.0470   23.9250  -13.1610 C   0  0  2  0  0  0  0  0  0  0  0  0
  -43.6070   23.9330  -13.7070 C   0  0  0  0  0  0  0  0  0  0  0  0
  -42.8490   25.2330  -13.3940 C   0  0  0  0  0  0  0  0  0  0  0  0
  -43.8770   26.2910  -13.7780 C   0  0  0  0  0  0  0  0  0  0  0  0
  -43.0650   27.5560  -14.0190 C   0  0  0  0  0  0  0  0  0  0  0  0
  -43.7720   28.6580  -14.3820 C   0  0  0  0  0  0  0  0  0  0  0  0
  -45.2960   28.5890  -14.5300 C   0  0  0  0  0  0  0  0  0  0  0  0
  -45.9900   27.4270  -14.3060 C   0  0  0  0  0  0  0  0  0  0  0  0
  -45.2130   26.1870  -13.9030 C   0  0  0  0  0  0  0  0  0  0  0  0
  -45.6700   22.5390  -13.5180 C   0  0  0  0  0  0  0  0  0  0  0  0
  -46.8740   22.1370  -12.9230 C   0  0  0  0  0  0  0  0  0  0  0  0
  -47.4330   20.9090  -13.2750 C   0  0  0  0  0  0  0  0  0  0  0  0
  -46.7860   20.0760  -14.1960 C   0  0  0  0  0  0  0  0  0  0  0  0
  -45.5830   20.4720  -14.7820 C   0  0  0  0  0  0  0  0  0  0  0  0
  -45.0280   21.7090  -14.4410 C   0  0  0  0  0  0  0  0  0  0  0  0
  -46.5100   24.5710  -15.0050 C   0  0  0  0  0  0  0  0  0  0  0  0
  -45.6180   24.5020  -16.2500 C   0  0  0  0  0  0  0  0  0  0  0  0
  -46.1470   24.1210  -17.4680 C   0  0  0  0  0  0  0  0  0  0  0  0
  -47.6390   23.7750  -17.5860 C   0  0  0  0  0  0  0  0  0  0  0  0
  -48.4500   23.8370  -16.4800 C   0  0  0  0  0  0  0  0  0  0  0  0
  -47.8620   24.2650  -15.1250 C   0  0  0  0  0  0  0  0  0  0  0  0
  -49.3620   24.0930  -19.2940 C   0  0  0  0  0  0  0  0  0  0  0  0
  -49.7720   23.5790  -20.6830 C   0  0  0  0  0  0  0  0  0  0  0  0
  -48.0030   24.7730  -21.6450 C   0  0  0  0  0  0  0  0  0  0  0  0
  -47.6170   25.1410  -23.0680 C   0  0  0  0  0  0  0  0  0  0  0  0
  -43.0990   29.8780  -14.6230 O   0  0  0  0  0  0  0  0  0  0  0  0
  -48.1840   23.3740  -18.8700 O   0  0  0  0  0  0  0  0  0  0  0  0
  -49.3950   24.5060  -21.6960 N   0  0  0  0  0  0  0  0  0  0  0  0
  -48.6950   24.5590  -23.9350 C   0  0  0  0  0  0  0  0  0  0  0  0
  -49.7150   23.9590  -22.9840 C   0  0  0  0  0  0  0  0  0  0  0  0
  2  1  1  0
  3  2  1  0
  4  3  1  0
  5  4  1  0
  6  5  1  0
  7  6  1  0
  8  7  1  0
  9  8  1  0
 10  5  1  0
 10  1  1  0
 10  9  1  0
  2 11  1  6
 12 11  1  0
 13 12  1  0
 14 13  1  0
 15 14  1  0
 16 15  1  0
 16 11  1  0
  1 17  1  6
 18 17  1  0
 19 18  1  0
 20 19  1  0
 21 20  1  0
 22 21  1  0
 22 17  1  0
 24 23  1  0
 26 25  1  0
 27  7  1  0
 28 23  1  0
 28 20  1  0
 29 24  1  0
 29 25  1  0
 30 26  1  0
 31 29  1  0
 31 30  1  0
M  END
$$$$
5DK9
     RDKit          3D

 79 79  0  0  0  0  0  0  0  0999 V2000
   28.9740   18.4900    6.3900 N   0  0  0  0  0  0  0  0  0  0  0  0
   28.8800   17.0610    6.1120 C   0  0  2  0  0  0  0  0  0  0  0  0
   28.5540   16.8050    4.6440 C   0  0  0  0  0  0  0  0  0  0  0  0
   28.2130   17.7280    3.9040 O   0  0  0  0  0  0  0  0  0  0  0  0
   27.8360   16.4040    7.0200 C   0  0  0  0  0  0  0  0  0  0  0  0
   26.4310   16.9520    6.8500 C   0  0  0  0  0  0  0  0  0  0  0  0
   25.5800   16.6730    8.0790 C   0  0  0  0  0  0  0  0  0  0  0  0
   26.1340   17.3870    9.3040 C   0  0  0  0  0  0  0  0  0  0  0  0
   25.2860   17.1800   10.5110 N   0  0  0  0  0  0  0  0  0  0  0  0
   28.6690   15.5460    4.2330 N   0  0  0  0  0  0  0  0  0  0  0  0
   28.3840   15.1490    2.8580 C   0  0  2  0  0  0  0  0  0  0  0  0
   26.9360   15.4500    2.4960 C   0  0  0  0  0  0  0  0  0  0  0  0
   26.6410   15.9000    1.3880 O   0  0  0  0  0  0  0  0  0  0  0  0
   28.6450   13.6460    2.6500 C   0  0  2  0  0  0  0  0  0  0  0  0
   30.0510   13.2800    3.1240 C   0  0  0  0  0  0  0  0  0  0  0  0
   28.4490   13.2590    1.1910 C   0  0  0  0  0  0  0  0  0  0  0  0
   30.3360   11.8010    3.0860 C   0  0  0  0  0  0  0  0  0  0  0  0
   26.0400   15.2040    3.4480 N   0  0  0  0  0  0  0  0  0  0  0  0
   24.6080   15.3940    3.2490 C   0  0  2  0  0  0  0  0  0  0  0  0
   24.2660   16.8210    2.8220 C   0  0  0  0  0  0  0  0  0  0  0  0
   23.3250   17.0380    2.0590 O   0  0  0  0  0  0  0  0  0  0  0  0
   23.8450   15.0220    4.5230 C   0  0  0  0  0  0  0  0  0  0  0  0
   22.3170   15.0730    4.4610 C   0  0  0  0  0  0  0  0  0  0  0  0
   21.7980   14.2010    3.3330 C   0  0  0  0  0  0  0  0  0  0  0  0
   21.7150   14.6430    5.7880 C   0  0  0  0  0  0  0  0  0  0  0  0
   25.0390   17.7860    3.3110 N   0  0  0  0  0  0  0  0  0  0  0  0
   24.8540   19.1840    2.9380 C   0  0  2  0  0  0  0  0  0  0  0  0
   25.0800   19.4000    1.4450 C   0  0  0  0  0  0  0  0  0  0  0  0
   24.3320   20.1310    0.7950 O   0  0  0  0  0  0  0  0  0  0  0  0
   25.8010   20.0850    3.7340 C   0  0  0  0  0  0  0  0  0  0  0  0
   25.4430   20.2170    5.1810 C   0  0  0  0  0  0  0  0  0  0  0  0
   26.3850   20.1890    6.1860 N   0  0  0  0  0  0  0  0  0  0  0  0
   24.2480   20.3960    5.7910 C   0  0  0  0  0  0  0  0  0  0  0  0
   25.7850   20.3330    7.3540 C   0  0  0  0  0  0  0  0  0  0  0  0
   24.4870   20.4600    7.1420 N   0  0  0  0  0  0  0  0  0  0  0  0
   26.1150   18.7600    0.9080 N   0  0  0  0  0  0  0  0  0  0  0  0
   26.4720   18.9210   -0.4980 C   0  0  2  0  0  0  0  0  0  0  0  0
   25.3890   18.3780   -1.4180 C   0  0  0  0  0  0  0  0  0  0  0  0
   24.9350   19.0640   -2.3340 O   0  0  0  0  0  0  0  0  0  0  0  0
   27.7940   18.2160   -0.8060 C   0  0  0  0  0  0  0  0  0  0  0  0
   28.4010   18.6230   -2.1370 C   0  0  0  0  0  0  0  0  0  0  0  0
   29.6920   17.8760   -2.4250 C   0  0  0  0  0  0  0  0  0  0  0  0
   29.4510   16.5040   -2.8640 N   0  0  0  0  0  0  0  0  0  0  0  0
   29.9110   15.4260   -2.2380 C   0  0  0  0  0  0  0  0  0  0  0  0
   30.6450   15.5560   -1.1420 N   0  0  0  0  0  0  0  0  0  0  0  0
   29.6430   14.2170   -2.7120 N   0  0  0  0  0  0  0  0  0  0  0  0
   24.9800   17.1390   -1.1650 N   0  0  0  0  0  0  0  0  0  0  0  0
   23.9990   16.4590   -2.0010 C   0  0  2  0  0  0  0  0  0  0  0  0
   22.6530   17.1810   -2.0000 C   0  0  0  0  0  0  0  0  0  0  0  0
   21.8850   17.0810   -2.9570 O   0  0  0  0  0  0  0  0  0  0  0  0
   23.8380   15.0080   -1.5420 C   0  0  0  0  0  0  0  0  0  0  0  0
   25.1560   14.2310   -1.4730 C   0  0  0  0  0  0  0  0  0  0  0  0
   24.9520   12.8280   -0.9260 C   0  0  0  0  0  0  0  0  0  0  0  0
   25.8190   14.1810   -2.8410 C   0  0  0  0  0  0  0  0  0  0  0  0
   22.3790   17.9150   -0.9260 N   0  0  0  0  0  0  0  0  0  0  0  0
   21.1500   18.6940   -0.8190 C   0  0  2  0  0  0  0  0  0  0  0  0
   21.2120   19.9750   -1.6460 C   0  0  0  0  0  0  0  0  0  0  0  0
   20.2320   20.3620   -2.2780 O   0  0  0  0  0  0  0  0  0  0  0  0
   20.8530   19.0270    0.6440 C   0  0  0  0  0  0  0  0  0  0  0  0
   20.2020   17.9170    1.4700 C   0  0  0  0  0  0  0  0  0  0  0  0
   20.2260   18.2680    2.9440 C   0  0  0  0  0  0  0  0  0  0  0  0
   18.7760   17.6830    1.0020 C   0  0  0  0  0  0  0  0  0  0  0  0
   22.3650   20.6340   -1.6370 N   0  0  0  0  0  0  0  0  0  0  0  0
   22.5290   21.8760   -2.3830 C   0  0  2  0  0  0  0  0  0  0  0  0
   22.7380   21.6150   -3.8730 C   0  0  0  0  0  0  0  0  0  0  0  0
   22.3430   22.4230   -4.7140 O   0  0  0  0  0  0  0  0  0  0  0  0
   23.6850   22.7010   -1.8130 C   0  0  0  0  0  0  0  0  0  0  0  0
   23.4530   23.1720   -0.3870 C   0  0  0  0  0  0  0  0  0  0  0  0
   24.6020   23.9980    0.1520 C   0  0  0  0  0  0  0  0  0  0  0  0
   25.4610   23.4890    0.8690 O   0  0  0  0  0  0  0  0  0  0  0  0
   24.6210   25.2820   -0.1880 N   0  0  0  0  0  0  0  0  0  0  0  0
   23.3560   20.4810   -4.1920 N   0  0  0  0  0  0  0  0  0  0  0  0
   23.5740   20.0910   -5.5800 C   0  0  2  0  0  0  0  0  0  0  0  0
   22.2530   19.7910   -6.2810 C   0  0  0  0  0  0  0  0  0  0  0  0
   22.1890   18.9450   -7.1730 O   0  0  0  0  0  0  0  0  0  0  0  0
   24.4970   18.8730   -5.6600 C   0  0  0  0  0  0  0  0  0  0  0  0
   25.9340   19.2040   -5.3070 C   0  0  0  0  0  0  0  0  0  0  0  0
   26.8380   18.4470   -5.7200 O   0  0  0  0  0  0  0  0  0  0  0  0
   26.1610   20.2230   -4.6210 O   0  0  0  0  0  0  0  0  0  0  0  0
  2  1  1  6
  3  2  1  0
  4  3  2  0
  5  2  1  0
  6  5  1  0
  7  6  1  0
  8  7  1  0
  9  8  1  0
 10  3  1  0
 11 10  1  1
 12 11  1  0
 13 12  2  0
 14 11  1  0
 15 14  1  0
 14 16  1  6
 17 15  1  0
 18 12  1  0
 19 18  1  0
 20 19  1  0
 21 20  2  0
 19 22  1  1
 23 22  1  0
 24 23  1  0
 25 23  1  0
 26 20  1  0
 27 26  1  0
 28 27  1  0
 29 28  2  0
 27 30  1  1
 31 30  1  0
 32 31  1  0
 33 31  2  0
 34 32  2  0
 35 34  1  0
 35 33  1  0
 36 28  1  0
 37 36  1  0
 38 37  1  0
 39 38  2  0
 37 40  1  1
 41 40  1  0
 42 41  1  0
 43 42  1  0
 44 43  1  0
 45 44  1  0
 46 44  2  0
 47 38  1  0
 48 47  1  0
 49 48  1  0
 50 49  2  0
 48 51  1  1
 52 51  1  0
 53 52  1  0
 54 52  1  0
 55 49  1  0
 56 55  1  0
 57 56  1  0
 58 57  2  0
 56 59  1  1
 60 59  1  0
 61 60  1  0
 62 60  1  0
 63 57  1  0
 64 63  1  0
 65 64  1  0
 66 65  2  0
 64 67  1  1
 68 67  1  0
 69 68  1  0
 70 69  2  0
 71 69  1  0
 72 65  1  0
 73 72  1  0
 74 73  1  0
 75 74  2  0
 73 76  1  1
 77 76  1  0
 78 77  2  0
 79 77  1  0
M  END
$$$$
5DIG
     RDKit          3D

 22 24  0  0  0  0  0  0  0  0999 V2000
   -4.4180   -3.6100   24.5030 C   0  0  0  0  0  0  0  0  0  0  0  0
   -3.0900   -3.7760   24.5750 C   0  0  0  0  0  0  0  0  0  0  0  0
   -2.4660   -4.1470   23.4460 C   0  0  0  0  0  0  0  0  0  0  0  0
   -3.0980   -4.3600   22.2730 C   0  0  0  0  0  0  0  0  0  0  0  0
   -4.4450   -4.1880   22.2130 C   0  0  0  0  0  0  0  0  0  0  0  0
   -5.0680   -3.8140   23.3490 C   0  0  0  0  0  0  0  0  0  0  0  0
   -5.2620   -4.3990   20.9330 C   0  0  2  0  0  0  0  0  0  0  0  0
   -6.1930   -3.2790   20.4190 C   0  0  0  0  0  0  0  0  0  0  0  0
   -6.9340   -3.5530   19.0910 C   0  0  2  0  0  0  0  0  0  0  0  0
   -7.5500   -4.9650   18.9870 C   0  0  2  0  0  0  0  0  0  0  0  0
   -6.6410   -6.0510   19.5880 C   0  0  0  0  0  0  0  0  0  0  0  0
   -6.0750   -5.7050   20.9660 C   0  0  0  0  0  0  0  0  0  0  0  0
   -5.9610   -3.4850   17.8960 C   0  0  0  0  0  0  0  0  0  0  0  0
   -6.4840   -4.4920   16.8550 C   0  0  0  0  0  0  0  0  0  0  0  0
   -7.7460   -5.0960   17.4710 C   0  0  2  0  0  0  0  0  0  0  0  0
   -8.9000   -5.0070   19.7360 C   0  0  0  0  0  0  0  0  0  0  0  0
   -8.9030   -4.4420   17.0160 O   0  0  0  0  0  0  0  0  0  0  0  0
   -2.4050   -3.5790   25.7320 O   0  0  0  0  0  0  0  0  0  0  0  0
   -2.1970   -4.7790   21.1140 C   0  0  2  0  0  0  0  0  0  0  0  0
   -0.9220   -4.9490   21.4110 F   0  0  0  0  0  0  0  0  0  0  0  0
   -2.2620   -3.8630   20.1600 F   0  0  0  0  0  0  0  0  0  0  0  0
   -2.5940   -5.9150   20.5570 F   0  0  0  0  0  0  0  0  0  0  0  0
  2  1  1  0
  3  2  1  0
  4  3  1  0
  5  4  1  0
  6  5  1  0
  6  1  1  0
  7  5  1  1
  8  7  1  0
  9  8  1  1
 10  9  1  0
 11 10  1  0
 12 11  1  0
 12  7  1  0
 13  9  1  0
 14 13  1  0
 15 14  1  0
 15 10  1  0
 10 16  1  1
 15 17  1  6
 18  2  1  0
 19  4  1  0
 19 20  1  1
 21 19  1  0
 22 19  1  0
M  END
$$$$
3UUC
     RDKit          3D

 56 55  0  0  0  0  0  0  0  0999 V2000
   -0.7000  -16.0550   -9.5450 N   0  0  0  0  0  0  0  0  0  0  0  0
   -0.0300  -15.0550  -10.3710 C   0  0  2  0  0  0  0  0  0  0  0  0
    1.0580  -15.6960  -11.2310 C   0  0  0  0  0  0  0  0  0  0  0  0
    0.8780  -15.8820  -12.4340 O   0  0  0  0  0  0  0  0  0  0  0  0
    0.5660  -13.9500   -9.4970 C   0  0  0  0  0  0  0  0  0  0  0  0
    2.1870  -16.0210  -10.6070 N   0  0  0  0  0  0  0  0  0  0  0  0
    3.2490  -16.7690  -11.2730 C   0  0  2  0  0  0  0  0  0  0  0  0
    2.7180  -18.1230  -11.7260 C   0  0  0  0  0  0  0  0  0  0  0  0
    2.7490  -18.4530  -12.9130 O   0  0  0  0  0  0  0  0  0  0  0  0
    4.4350  -16.9850  -10.3230 C   0  0  0  0  0  0  0  0  0  0  0  0
    5.3500  -15.7730  -10.2320 C   0  0  0  0  0  0  0  0  0  0  0  0
    4.9620  -14.6860  -10.7080 O   0  0  0  0  0  0  0  0  0  0  0  0
    6.4620  -15.9120   -9.6760 O   0  0  0  0  0  0  0  0  0  0  0  0
    2.2280  -18.8990  -10.7610 N   0  0  0  0  0  0  0  0  0  0  0  0
    1.7190  -20.2450  -11.0060 C   0  0  2  0  0  0  0  0  0  0  0  0
    0.5950  -20.2380  -12.0300 C   0  0  0  0  0  0  0  0  0  0  0  0
    0.3130  -21.2470  -12.6760 O   0  0  0  0  0  0  0  0  0  0  0  0
    1.2150  -20.8610   -9.6990 C   0  0  0  0  0  0  0  0  0  0  0  0
   -0.0400  -19.0830  -12.1700 N   0  0  0  0  0  0  0  0  0  0  0  0
   -1.1970  -18.9430  -13.0360 C   0  0  2  0  0  0  0  0  0  0  0  0
   -0.8090  -18.9740  -14.5180 C   0  0  0  0  0  0  0  0  0  0  0  0
   -1.2170  -19.8770  -15.2510 O   0  0  0  0  0  0  0  0  0  0  0  0
   -1.9520  -17.6620  -12.6770 C   0  0  0  0  0  0  0  0  0  0  0  0
   -3.3560  -17.4810  -13.2450 C   0  0  0  0  0  0  0  0  0  0  0  0
   -4.1070  -16.4010  -12.4730 C   0  0  0  0  0  0  0  0  0  0  0  0
   -3.2730  -17.1420  -14.7170 C   0  0  0  0  0  0  0  0  0  0  0  0
   -0.0200  -17.9940  -14.9540 N   0  0  0  0  0  0  0  0  0  0  0  0
    0.4400  -17.9420  -16.3420 C   0  0  2  0  0  0  0  0  0  0  0  0
    1.1670  -19.2290  -16.7080 C   0  0  0  0  0  0  0  0  0  0  0  0
    1.1530  -19.6660  -17.8610 O   0  0  0  0  0  0  0  0  0  0  0  0
    1.3620  -16.7410  -16.5620 C   0  0  0  0  0  0  0  0  0  0  0  0
    1.8060  -19.8280  -15.7110 N   0  0  0  0  0  0  0  0  0  0  0  0
    2.5170  -21.0840  -15.8900 C   0  0  2  0  0  0  0  0  0  0  0  0
    1.6320  -22.1560  -16.5280 C   0  0  0  0  0  0  0  0  0  0  0  0
    2.0310  -22.8140  -17.4890 O   0  0  0  0  0  0  0  0  0  0  0  0
    3.0290  -21.5750  -14.5360 C   0  0  0  0  0  0  0  0  0  0  0  0
    3.5620  -22.9920  -14.5380 C   0  0  0  0  0  0  0  0  0  0  0  0
    3.7710  -23.5210  -13.1340 C   0  0  0  0  0  0  0  0  0  0  0  0
    3.2560  -22.8950  -12.1840 O   0  0  0  0  0  0  0  0  0  0  0  0
    4.4500  -24.5580  -12.9790 O   0  0  0  0  0  0  0  0  0  0  0  0
    0.4250  -22.3160  -15.9920 N   0  0  0  0  0  0  0  0  0  0  0  0
   -0.4500  -23.4240  -16.3730 C   0  0  2  0  0  0  0  0  0  0  0  0
   -1.3000  -23.1510  -17.6130 C   0  0  0  0  0  0  0  0  0  0  0  0
   -1.5990  -24.0660  -18.3780 O   0  0  0  0  0  0  0  0  0  0  0  0
   -1.3470  -23.8070  -15.1960 C   0  0  0  0  0  0  0  0  0  0  0  0
   -0.5910  -23.9460  -13.8870 C   0  0  0  0  0  0  0  0  0  0  0  0
   -1.6460  -24.4660  -12.5260 S   0  0  0  0  0  0  0  0  0  0  0  0
   -2.2640  -26.0060  -13.1870 C   0  0  0  0  0  0  0  0  0  0  0  0
   -1.6900  -21.8960  -17.8100 N   0  0  0  0  0  0  0  0  0  0  0  0
   -2.5540  -21.5420  -18.9330 C   0  0  2  0  0  0  0  0  0  0  0  0
   -1.8170  -21.5980  -20.2700 C   0  0  0  0  0  0  0  0  0  0  0  0
   -0.6540  -21.2060  -20.3670 O   0  0  0  0  0  0  0  0  0  0  0  0
   -3.1680  -20.1560  -18.7190 C   0  0  0  0  0  0  0  0  0  0  0  0
   -4.1190  -20.0400  -17.5280 C   0  0  0  0  0  0  0  0  0  0  0  0
   -4.5710  -18.6090  -17.3330 C   0  0  0  0  0  0  0  0  0  0  0  0
   -5.3160  -20.9510  -17.7280 C   0  0  0  0  0  0  0  0  0  0  0  0
  2  1  1  0
  3  2  1  0
  4  3  2  0
  2  5  1  1
  6  3  1  0
  7  6  1  0
  8  7  1  0
  9  8  2  0
  7 10  1  1
 11 10  1  0
 12 11  2  0
 13 11  1  0
 14  8  1  0
 15 14  1  0
 16 15  1  0
 17 16  2  0
 15 18  1  1
 19 16  1  0
 20 19  1  0
 21 20  1  0
 22 21  2  0
 20 23  1  1
 24 23  1  0
 25 24  1  0
 26 24  1  0
 27 21  1  0
 28 27  1  0
 29 28  1  0
 30 29  2  0
 28 31  1  1
 32 29  1  0
 33 32  1  0
 34 33  1  0
 35 34  2  0
 33 36  1  1
 37 36  1  0
 38 37  1  0
 39 38  2  0
 40 38  1  0
 41 34  1  0
 42 41  1  0
 43 42  1  0
 44 43  2  0
 42 45  1  1
 46 45  1  0
 47 46  1  0
 48 47  1  0
 49 43  1  0
 50 49  1  0
 51 50  1  0
 52 51  2  0
 50 53  1  1
 54 53  1  0
 55 54  1  0
 56 54  1  0
M  END
$$$$
5TM2
     RDKit          3D

 75 74  0  0  0  0  0  0  0  0999 V2000
   17.0380   -3.2260   40.1230 N   0  0  0  0  0  0  0  0  0  0  0  0
   15.7300   -3.2100   39.4760 C   0  0  2  0  0  0  0  0  0  0  0  0
   14.8590   -4.3520   39.9900 C   0  0  0  0  0  0  0  0  0  0  0  0
   15.3610   -5.3050   40.5830 O   0  0  0  0  0  0  0  0  0  0  0  0
   15.8830   -3.3030   37.9570 C   0  0  0  0  0  0  0  0  0  0  0  0
   13.5520   -4.2540   39.7570 N   0  0  0  0  0  0  0  0  0  0  0  0
   12.6350   -5.2860   40.2150 C   0  0  2  0  0  0  0  0  0  0  0  0
   12.7580   -6.5430   39.3550 C   0  0  0  0  0  0  0  0  0  0  0  0
   13.4470   -6.5740   38.3300 O   0  0  0  0  0  0  0  0  0  0  0  0
   11.1940   -4.7810   40.1820 C   0  0  0  0  0  0  0  0  0  0  0  0
   10.7100   -4.7290   38.8500 O   0  0  0  0  0  0  0  0  0  0  0  0
   12.0620   -7.5900   39.7970 N   0  0  0  0  0  0  0  0  0  0  0  0
   11.9760   -8.8550   39.0790 C   0  0  2  0  0  0  0  0  0  0  0  0
   10.9360   -8.8220   37.9680 C   0  0  0  0  0  0  0  0  0  0  0  0
   11.0990   -9.5100   36.9530 O   0  0  0  0  0  0  0  0  0  0  0  0
   11.6420   -9.9900   40.0550 C   0  0  0  0  0  0  0  0  0  0  0  0
    9.8610   -8.0490   38.1400 N   0  0  0  0  0  0  0  0  0  0  0  0
    8.8640   -7.9330   37.0830 C   0  0  2  0  0  0  0  0  0  0  0  0
    9.3830   -7.0800   35.9340 C   0  0  0  0  0  0  0  0  0  0  0  0
    9.2050   -7.4310   34.7620 O   0  0  0  0  0  0  0  0  0  0  0  0
    7.5650   -7.3510   37.6450 C   0  0  0  0  0  0  0  0  0  0  0  0
    6.4680   -7.0290   36.6280 C   0  0  0  0  0  0  0  0  0  0  0  0
    5.9910   -8.2860   35.9140 C   0  0  0  0  0  0  0  0  0  0  0  0
    5.3010   -6.3120   37.2940 C   0  0  0  0  0  0  0  0  0  0  0  0
   10.0310   -5.9570   36.2500 N   0  0  0  0  0  0  0  0  0  0  0  0
   10.5720   -5.0980   35.2040 C   0  0  2  0  0  0  0  0  0  0  0  0
   11.7590   -5.7490   34.5050 C   0  0  0  0  0  0  0  0  0  0  0  0
   11.9650   -5.5310   33.3060 O   0  0  0  0  0  0  0  0  0  0  0  0
   10.9650   -3.7420   35.7940 C   0  0  0  0  0  0  0  0  0  0  0  0
   11.1940   -2.5770   34.8280 C   0  0  0  0  0  0  0  0  0  0  0  0
   10.7600   -1.2700   35.4700 C   0  0  0  0  0  0  0  0  0  0  0  0
   12.6520   -2.4940   34.4010 C   0  0  0  0  0  0  0  0  0  0  0  0
   12.5470   -6.5490   35.2300 N   0  0  0  0  0  0  0  0  0  0  0  0
   13.6350   -7.2790   34.5870 C   0  0  2  0  0  0  0  0  0  0  0  0
   13.1050   -8.3610   33.6570 C   0  0  0  0  0  0  0  0  0  0  0  0
   13.7780   -8.7270   32.6870 O   0  0  0  0  0  0  0  0  0  0  0  0
   14.5600   -7.8900   35.6400 C   0  0  0  0  0  0  0  0  0  0  0  0
   11.9100   -8.8850   33.9360 N   0  0  0  0  0  0  0  0  0  0  0  0
   11.2940   -9.8370   33.0190 C   0  0  2  0  0  0  0  0  0  0  0  0
   10.8110   -9.1410   31.7530 C   0  0  0  0  0  0  0  0  0  0  0  0
   10.8780   -9.7120   30.6580 O   0  0  0  0  0  0  0  0  0  0  0  0
   10.1410  -10.5640   33.7090 C   0  0  0  0  0  0  0  0  0  0  0  0
    9.4350  -11.5680   32.8170 C   0  0  0  0  0  0  0  0  0  0  0  0
    8.4480  -12.4320   33.5730 C   0  0  0  0  0  0  0  0  0  0  0  0
    8.1630  -12.1250   34.7490 O   0  0  0  0  0  0  0  0  0  0  0  0
    7.9620  -13.4220   32.9880 O   0  0  0  0  0  0  0  0  0  0  0  0
   10.3200   -7.9060   31.8840 N   0  0  0  0  0  0  0  0  0  0  0  0
    9.9260   -7.1360   30.7100 C   0  0  2  0  0  0  0  0  0  0  0  0
   11.1230   -6.8220   29.8210 C   0  0  0  0  0  0  0  0  0  0  0  0
   10.9890   -6.7840   28.5920 O   0  0  0  0  0  0  0  0  0  0  0  0
    9.2340   -5.8400   31.1350 C   0  0  0  0  0  0  0  0  0  0  0  0
    8.0070   -6.0260   32.0190 C   0  0  0  0  0  0  0  0  0  0  0  0
    6.6800   -6.9480   31.2190 S   0  0  0  0  0  0  0  0  0  0  0  0
    5.2580   -6.3670   32.1430 C   0  0  0  0  0  0  0  0  0  0  0  0
   12.2940   -6.5960   30.4200 N   0  0  0  0  0  0  0  0  0  0  0  0
   13.4920   -6.3100   29.6380 C   0  0  2  0  0  0  0  0  0  0  0  0
   14.0450   -7.5690   28.9810 C   0  0  0  0  0  0  0  0  0  0  0  0
   14.5000   -7.5240   27.8330 O   0  0  0  0  0  0  0  0  0  0  0  0
   14.5540   -5.6570   30.5250 C   0  0  0  0  0  0  0  0  0  0  0  0
   14.2060   -4.2760   31.0840 C   0  0  0  0  0  0  0  0  0  0  0  0
   15.2930   -3.7880   32.0290 C   0  0  0  0  0  0  0  0  0  0  0  0
   13.9870   -3.2790   29.9550 C   0  0  0  0  0  0  0  0  0  0  0  0
   14.0130   -8.6990   29.6890 N   0  0  0  0  0  0  0  0  0  0  0  0
   14.4320   -9.9830   29.1270 C   0  0  2  0  0  0  0  0  0  0  0  0
   13.3150  -10.5710   28.2610 C   0  0  0  0  0  0  0  0  0  0  0  0
   12.8250  -11.6790   28.4770 O   0  0  0  0  0  0  0  0  0  0  0  0
   14.8390  -10.9400   30.2400 C   0  0  0  0  0  0  0  0  0  0  0  0
   16.2170  -10.6370   30.7950 C   0  0  0  0  0  0  0  0  0  0  0  0
   16.7660  -11.4910   31.5220 O   0  0  0  0  0  0  0  0  0  0  0  0
   16.7540   -9.5500   30.4960 O   0  0  0  0  0  0  0  0  0  0  0  0
   12.9170   -9.7920   27.2600 N   0  0  0  0  0  0  0  0  0  0  0  0
   11.8250  -10.1700   26.3730 C   0  0  2  0  0  0  0  0  0  0  0  0
   11.9010   -9.3990   25.0590 C   0  0  0  0  0  0  0  0  0  0  0  0
   11.4630   -9.8840   24.0170 O   0  0  0  0  0  0  0  0  0  0  0  0
   10.4880   -9.9320   27.0500 C   0  0  0  0  0  0  0  0  0  0  0  0
  2  1  1  0
  3  2  1  0
  4  3  2  0
  2  5  1  6
  6  3  1  0
  7  6  1  0
  8  7  1  0
  9  8  2  0
  7 10  1  6
 11 10  1  0
 12  8  1  0
 13 12  1  0
 14 13  1  0
 15 14  2  0
 13 16  1  1
 17 14  1  0
 18 17  1  0
 19 18  1  0
 20 19  2  0
 18 21  1  1
 22 21  1  0
 23 22  1  0
 24 22  1  0
 25 19  1  0
 26 25  1  0
 27 26  1  0
 28 27  2  0
 26 29  1  1
 30 29  1  0
 31 30  1  0
 32 30  1  0
 33 27  1  0
 34 33  1  0
 35 34  1  0
 36 35  2  0
 34 37  1  1
 38 35  1  0
 39 38  1  0
 40 39  1  0
 41 40  2  0
 39 42  1  1
 43 42  1  0
 44 43  1  0
 45 44  2  0
 46 44  1  0
 47 40  1  0
 48 47  1  0
 49 48  1  0
 50 49  2  0
 48 51  1  1
 52 51  1  0
 53 52  1  0
 54 53  1  0
 55 49  1  0
 56 55  1  0
 57 56  1  0
 58 57  2  0
 56 59  1  1
 60 59  1  0
 61 60  1  0
 62 60  1  0
 63 57  1  0
 64 63  1  0
 65 64  1  0
 66 65  2  0
 64 67  1  1
 68 67  1  0
 69 68  2  0
 70 68  1  0
 71 65  1  0
 72 71  1  0
 73 72  1  0
 74 73  2  0
 72 75  1  1
M  END
$$$$
5TMS
     RDKit          3D

 23 26  0  0  0  0  0  0  0  0999 V2000
   20.3250   -4.2610    7.1890 C   0  0  0  0  0  0  0  0  0  0  0  0
   19.7420   -3.5070    8.3930 C   0  0  0  0  0  0  0  0  0  0  0  0
   18.5000   -2.6490    8.1070 C   0  0  0  0  0  0  0  0  0  0  0  0
   17.7900   -2.8270    6.7470 C   0  0  2  0  0  0  0  0  0  0  0  0
   16.6580   -3.8800    6.7240 C   0  0  0  0  0  0  0  0  0  0  0  0
   17.1180   -5.3270    6.9140 C   0  0  0  0  0  0  0  0  0  0  0  0
   18.3840   -5.6370    6.1060 C   0  0  0  0  0  0  0  0  0  0  0  0
   19.4030   -4.4830    5.9670 C   0  0  1  0  0  0  0  0  0  0  0  0
   18.7610   -3.1450    5.6130 C   0  0  2  0  0  0  0  0  0  0  0  0
   19.2510   -2.2420    4.7150 C   0  0  0  0  0  0  0  0  0  0  0  0
   20.4770   -1.6610    4.8690 C   0  0  0  0  0  0  0  0  0  0  0  0
   18.5440   -1.8550    3.6150 C   0  0  0  0  0  0  0  0  0  0  0  0
   19.1470   -1.6960    2.4150 C   0  0  0  0  0  0  0  0  0  0  0  0
   18.4860   -1.3140    1.3110 C   0  0  0  0  0  0  0  0  0  0  0  0
   17.1680   -1.0680    1.3410 C   0  0  0  0  0  0  0  0  0  0  0  0
   16.5470   -1.2200    2.5220 C   0  0  0  0  0  0  0  0  0  0  0  0
   17.2180   -1.6010    3.6210 C   0  0  0  0  0  0  0  0  0  0  0  0
   20.6010   -0.3760    5.2670 C   0  0  0  0  0  0  0  0  0  0  0  0
   21.7930    0.2230    5.4250 C   0  0  0  0  0  0  0  0  0  0  0  0
   22.9550   -0.4210    5.1970 C   0  0  0  0  0  0  0  0  0  0  0  0
   22.8440   -1.7020    4.8000 C   0  0  0  0  0  0  0  0  0  0  0  0
   21.6480   -2.2900    4.6410 C   0  0  0  0  0  0  0  0  0  0  0  0
   16.4860   -0.6830    0.2310 O   0  0  0  0  0  0  0  0  0  0  0  0
  2  1  1  0
  3  2  1  0
  4  3  1  1
  5  4  1  0
  6  5  1  0
  7  6  1  0
  8  7  1  1
  8  1  1  0
  9  8  1  0
  9  4  1  0
  9 10  1  1
 11 10  1  0
 12 10  1  0
 13 12  1  0
 14 13  1  0
 15 14  1  0
 16 15  1  0
 17 16  1  0
 17 12  1  0
 18 11  1  0
 19 18  1  0
 20 19  1  0
 21 20  1  0
 22 11  1  0
 22 21  1  0
 23 15  1  0
M  END
$$$$
5FQT
     RDKit          3D

 27 29  0  0  0  0  0  0  0  0999 V2000
   14.7780   27.3530   64.4220 C   0  0  0  0  0  0  0  0  0  0  0  0
   15.5160   26.0770   64.6130 C   0  0  0  0  0  0  0  0  0  0  0  0
   16.8430   26.0730   64.9790 C   0  0  0  0  0  0  0  0  0  0  0  0
   17.4980   24.8820   65.1700 C   0  0  0  0  0  0  0  0  0  0  0  0
   16.8160   23.6920   65.0160 C   0  0  0  0  0  0  0  0  0  0  0  0
   15.4720   23.6800   64.6530 C   0  0  0  0  0  0  0  0  0  0  0  0
   14.8160   24.8950   64.4610 C   0  0  0  0  0  0  0  0  0  0  0  0
   13.3680   24.9550   64.0470 C   0  0  0  0  0  0  0  0  0  0  0  0
   12.9960   23.6270   63.3520 C   0  0  0  0  0  0  0  0  0  0  0  0
   13.3140   22.5040   64.2990 N   0  0  0  0  0  0  0  0  0  0  0  0
   14.7730   22.3580   64.5380 C   0  0  2  0  0  0  0  0  0  0  0  0
   14.9820   21.6170   65.8300 C   0  0  0  0  0  0  0  0  0  0  0  0
   15.4810   20.3300   65.7490 C   0  0  0  0  0  0  0  0  0  0  0  0
   15.7110   19.5980   66.9080 C   0  0  0  0  0  0  0  0  0  0  0  0
   15.4440   20.1780   68.1350 C   0  0  1  0  0  0  0  0  0  0  0  0
   14.9160   21.4430   68.2360 C   0  0  0  0  0  0  0  0  0  0  0  0
   14.6700   22.1870   67.0630 C   0  0  0  0  0  0  0  0  0  0  0  0
   15.6730   19.3790   69.3670 C   0  0  0  0  0  0  0  0  0  0  0  0
   16.0370   20.0140   70.4880 C   0  0  0  0  0  0  0  0  0  0  0  0
   16.1770   19.0140   71.6480 C   0  0  2  0  0  0  0  0  0  0  0  0
   15.7020   17.8690   71.4080 O   0  0  0  0  0  0  0  0  0  0  0  0
   16.6420   19.4280   72.7300 O   0  0  0  0  0  0  0  0  0  0  0  0
   12.7520   21.1590   63.9770 C   0  0  0  0  0  0  0  0  0  0  0  0
   11.2570   21.1270   64.3170 C   0  0  2  0  0  0  0  0  0  0  0  0
   10.9310   21.4250   65.7760 C   0  0  0  0  0  0  0  0  0  0  0  0
   10.5860   19.8400   63.9060 C   0  0  0  0  0  0  0  0  0  0  0  0
   17.5450   27.2740   65.1800 O   0  0  0  0  0  0  0  0  0  0  0  0
  2  1  1  0
  3  2  1  0
  4  3  1  0
  5  4  1  0
  6  5  1  0
  7  6  1  0
  7  2  1  0
  8  7  1  0
  9  8  1  0
 10  9  1  0
 11 10  1  0
 11  6  1  0
 11 12  1  1
 13 12  1  0
 14 13  1  0
 15 14  1  0
 16 15  1  0
 17 16  1  0
 17 12  1  0
 15 18  1  6
 19 18  1  0
 20 19  1  0
 20 21  1  1
 22 20  1  0
 23 10  1  0
 24 23  1  0
 24 25  1  1
 26 24  1  0
 27  3  1  0
M  END
$$$$
5TMQ
     RDKit          3D

 73 73  0  0  0  0  0  0  0  0999 V2000
   29.3870   18.2250    6.1070 N   0  0  0  0  0  0  0  0  0  0  0  0
   29.0540   16.8140    5.9490 C   0  0  2  0  0  0  0  0  0  0  0  0
   28.6850   16.4980    4.5020 C   0  0  0  0  0  0  0  0  0  0  0  0
   28.3710   17.3960    3.7210 O   0  0  0  0  0  0  0  0  0  0  0  0
   27.9080   16.4250    6.8880 C   0  0  0  0  0  0  0  0  0  0  0  0
   28.2340   16.6040    8.3650 C   0  0  0  0  0  0  0  0  0  0  0  0
   27.1130   16.0990    9.2650 C   0  0  0  0  0  0  0  0  0  0  0  0
   25.8280   16.8800    9.0500 C   0  0  0  0  0  0  0  0  0  0  0  0
   24.8190   16.6040   10.1090 N   0  0  0  0  0  0  0  0  0  0  0  0
   28.7310   15.2100    4.1500 N   0  0  0  0  0  0  0  0  0  0  0  0
   28.3930   14.7930    2.7930 C   0  0  2  0  0  0  0  0  0  0  0  0
   26.9310   15.0800    2.4870 C   0  0  0  0  0  0  0  0  0  0  0  0
   26.5710   15.3700    1.3390 O   0  0  0  0  0  0  0  0  0  0  0  0
   28.7260   13.3010    2.5990 C   0  0  2  0  0  0  0  0  0  0  0  0
   30.1560   13.0110    3.0530 C   0  0  0  0  0  0  0  0  0  0  0  0
   28.5390   12.8920    1.1470 C   0  0  0  0  0  0  0  0  0  0  0  0
   30.5480   11.5600    2.9210 C   0  0  0  0  0  0  0  0  0  0  0  0
   26.0660   15.0110    3.5020 N   0  0  0  0  0  0  0  0  0  0  0  0
   24.6460   15.2670    3.2870 C   0  0  2  0  0  0  0  0  0  0  0  0
   24.3960   16.6940    2.8150 C   0  0  0  0  0  0  0  0  0  0  0  0
   23.4670   16.9360    2.0370 O   0  0  0  0  0  0  0  0  0  0  0  0
   23.8670   14.9780    4.5710 C   0  0  0  0  0  0  0  0  0  0  0  0
   22.3440   15.0770    4.5070 C   0  0  0  0  0  0  0  0  0  0  0  0
   21.8120   14.2970    3.3210 C   0  0  0  0  0  0  0  0  0  0  0  0
   21.7300   14.5650    5.7990 C   0  0  0  0  0  0  0  0  0  0  0  0
   25.2140   17.6490    3.2640 N   0  0  0  0  0  0  0  0  0  0  0  0
   25.0550   19.0240    2.8040 C   0  0  2  0  0  0  0  0  0  0  0  0
   25.3990   19.1690    1.3270 C   0  0  0  0  0  0  0  0  0  0  0  0
   24.8140   20.0130    0.6380 O   0  0  0  0  0  0  0  0  0  0  0  0
   25.9200   19.9670    3.6390 C   0  0  0  0  0  0  0  0  0  0  0  0
   25.5170   20.0500    5.0780 C   0  0  0  0  0  0  0  0  0  0  0  0
   26.2530   19.4750    6.0920 N   0  0  0  0  0  0  0  0  0  0  0  0
   24.4580   20.6480    5.6750 C   0  0  0  0  0  0  0  0  0  0  0  0
   25.6650   19.7150    7.2500 C   0  0  0  0  0  0  0  0  0  0  0  0
   24.5730   20.4230    7.0250 N   0  0  0  0  0  0  0  0  0  0  0  0
   26.3390   18.3650    0.8240 N   0  0  0  0  0  0  0  0  0  0  0  0
   26.6890   18.4310   -0.5910 C   0  0  2  0  0  0  0  0  0  0  0  0
   25.5300   17.9740   -1.4660 C   0  0  0  0  0  0  0  0  0  0  0  0
   25.1300   18.6760   -2.4020 O   0  0  0  0  0  0  0  0  0  0  0  0
   27.9280   17.5820   -0.8760 C   0  0  0  0  0  0  0  0  0  0  0  0
   29.2100   18.0720   -0.2370 C   0  0  0  0  0  0  0  0  0  0  0  0
   30.4120   17.7120   -1.1030 C   0  0  0  0  0  0  0  0  0  0  0  0
   30.0990   16.6560   -2.0640 N   0  0  0  0  0  0  0  0  0  0  0  0
   30.3510   15.3650   -1.8690 C   0  0  0  0  0  0  0  0  0  0  0  0
   30.9270   14.9610   -0.7450 N   0  0  0  0  0  0  0  0  0  0  0  0
   30.0290   14.4770   -2.8000 N   0  0  0  0  0  0  0  0  0  0  0  0
   24.9830   16.7890   -1.1790 N   0  0  0  0  0  0  0  0  0  0  0  0
   23.9120   16.2480   -2.0090 C   0  0  2  0  0  0  0  0  0  0  0  0
   22.6580   17.1080   -1.9440 C   0  0  0  0  0  0  0  0  0  0  0  0
   21.9070   17.1810   -2.9230 O   0  0  0  0  0  0  0  0  0  0  0  0
   23.5970   14.8130   -1.5860 C   0  0  0  0  0  0  0  0  0  0  0  0
   22.4150   17.7670   -0.8100 N   0  0  0  0  0  0  0  0  0  0  0  0
   21.2530   18.6350   -0.6700 C   0  0  2  0  0  0  0  0  0  0  0  0
   21.4090   19.9650   -1.3970 C   0  0  0  0  0  0  0  0  0  0  0  0
   20.4360   20.7230   -1.4790 O   0  0  0  0  0  0  0  0  0  0  0  0
   20.9590   18.8910    0.8100 C   0  0  0  0  0  0  0  0  0  0  0  0
   20.1930   17.7920    1.5470 C   0  0  0  0  0  0  0  0  0  0  0  0
   20.1450   18.0810    3.0340 C   0  0  0  0  0  0  0  0  0  0  0  0
   18.7870   17.6610    0.9860 C   0  0  0  0  0  0  0  0  0  0  0  0
   22.5960   20.2660   -1.9250 N   0  0  0  0  0  0  0  0  0  0  0  0
   22.8330   21.5100   -2.6420 C   0  0  2  0  0  0  0  0  0  0  0  0
   23.1690   21.3250   -4.1140 C   0  0  0  0  0  0  0  0  0  0  0  0
   22.9420   22.2540   -4.8970 O   0  0  0  0  0  0  0  0  0  0  0  0
   23.9680   22.3060   -1.9780 C   0  0  0  0  0  0  0  0  0  0  0  0
   23.6300   22.8320   -0.5930 C   0  0  0  0  0  0  0  0  0  0  0  0
   24.8070   23.5200    0.0690 C   0  0  0  0  0  0  0  0  0  0  0  0
   25.9450   23.0630   -0.0340 O   0  0  0  0  0  0  0  0  0  0  0  0
   24.5400   24.6300    0.7480 N   0  0  0  0  0  0  0  0  0  0  0  0
   23.6960   20.1720   -4.5110 N   0  0  0  0  0  0  0  0  0  0  0  0
   24.0470   19.9300   -5.9060 C   0  0  2  0  0  0  0  0  0  0  0  0
   23.0630   18.9650   -6.5590 C   0  0  0  0  0  0  0  0  0  0  0  0
   22.4180   19.3000   -7.5530 O   0  0  0  0  0  0  0  0  0  0  0  0
   25.4720   19.3840   -6.0130 C   0  0  0  0  0  0  0  0  0  0  0  0
  2  1  1  6
  3  2  1  0
  4  3  2  0
  5  2  1  0
  6  5  1  0
  7  6  1  0
  8  7  1  0
  9  8  1  0
 10  3  1  0
 11 10  1  1
 12 11  1  0
 13 12  2  0
 14 11  1  0
 15 14  1  0
 14 16  1  6
 17 15  1  0
 18 12  1  0
 19 18  1  0
 20 19  1  0
 21 20  2  0
 19 22  1  1
 23 22  1  0
 24 23  1  0
 25 23  1  0
 26 20  1  0
 27 26  1  0
 28 27  1  0
 29 28  2  0
 27 30  1  1
 31 30  1  0
 32 31  1  0
 33 31  2  0
 34 32  2  0
 35 34  1  0
 35 33  1  0
 36 28  1  0
 37 36  1  0
 38 37  1  0
 39 38  2  0
 37 40  1  1
 41 40  1  0
 42 41  1  0
 43 42  1  0
 44 43  1  0
 45 44  1  0
 46 44  2  0
 47 38  1  0
 48 47  1  0
 49 48  1  0
 50 49  2  0
 48 51  1  1
 52 49  1  0
 53 52  1  0
 54 53  1  0
 55 54  2  0
 53 56  1  1
 57 56  1  0
 58 57  1  0
 59 57  1  0
 60 54  1  0
 61 60  1  0
 62 61  1  0
 63 62  2  0
 61 64  1  1
 65 64  1  0
 66 65  1  0
 67 66  2  0
 68 66  1  0
 69 62  1  0
 70 69  1  0
 71 70  1  0
 72 71  2  0
 70 73  1  1
M  END
$$$$
5FQV
     RDKit          3D

 27 29  0  0  0  0  0  0  0  0999 V2000
   19.0890   25.1160   64.6630 C   0  0  0  0  0  0  0  0  0  0  0  0
   17.5280   25.3300   64.5350 C   0  0  0  0  0  0  0  0  0  0  0  0
   16.8630   24.1570   64.3790 C   0  0  0  0  0  0  0  0  0  0  0  0
   15.4450   24.2740   64.1660 C   0  0  2  0  0  0  0  0  0  0  0  0
   14.8860   25.5040   64.2230 C   0  0  0  0  0  0  0  0  0  0  0  0
   15.5650   26.7180   64.3710 C   0  0  0  0  0  0  0  0  0  0  0  0
   16.9480   26.5880   64.5940 C   0  0  2  0  0  0  0  0  0  0  0  0
   17.7130   27.7060   64.7970 O   0  0  0  0  0  0  0  0  0  0  0  0
   13.3590   25.6900   64.0640 C   0  0  0  0  0  0  0  0  0  0  0  0
   12.8540   24.4930   63.2670 C   0  0  0  0  0  0  0  0  0  0  0  0
   13.1360   23.2590   64.0390 N   0  0  0  0  0  0  0  0  0  0  0  0
   14.6410   23.0730   64.1130 C   0  0  2  0  0  0  0  0  0  0  0  0
   14.9070   22.1330   65.2420 C   0  0  0  0  0  0  0  0  0  0  0  0
   14.7310   22.6630   66.5670 C   0  0  0  0  0  0  0  0  0  0  0  0
   14.9600   21.8410   67.7180 C   0  0  0  0  0  0  0  0  0  0  0  0
   15.3660   20.5290   67.5190 C   0  0  2  0  0  0  0  0  0  0  0  0
   15.5360   20.0470   66.1820 C   0  0  0  0  0  0  0  0  0  0  0  0
   15.3040   20.8410   65.0140 C   0  0  0  0  0  0  0  0  0  0  0  0
   15.5900   19.5220   68.6280 C   0  0  0  0  0  0  0  0  0  0  0  0
   15.9850   19.9540   69.8420 C   0  0  0  0  0  0  0  0  0  0  0  0
   16.1560   18.9160   70.9030 C   0  0  0  0  0  0  0  0  0  0  0  0
   15.8860   17.7150   70.6970 O   0  0  0  0  0  0  0  0  0  0  0  0
   16.5490   19.3520   72.0840 O   0  0  0  0  0  0  0  0  0  0  0  0
   12.5390   22.0310   63.4860 C   0  0  0  0  0  0  0  0  0  0  0  0
   11.1200   21.7480   64.1860 C   0  0  2  0  0  0  0  0  0  0  0  0
   11.2150   21.6000   65.7290 C   0  0  0  0  0  0  0  0  0  0  0  0
   10.4700   20.5010   63.6400 C   0  0  0  0  0  0  0  0  0  0  0  0
  2  1  1  0
  3  2  1  0
  4  3  1  1
  5  4  1  0
  6  5  1  0
  7  6  1  0
  7  2  1  0
  7  8  1  6
  9  5  1  0
 10  9  1  0
 11 10  1  0
 12 11  1  0
 12  4  1  0
 12 13  1  1
 14 13  1  0
 15 14  1  0
 16 15  1  0
 17 16  1  0
 18 17  1  0
 18 13  1  0
 16 19  1  6
 20 19  1  0
 21 20  1  0
 22 21  1  0
 23 21  1  0
 24 11  1  0
 25 24  1  0
 25 26  1  1
 27 25  1  0
M  END
$$$$
3UU7
     RDKit          3D

 72 72  0  0  0  0  0  0  0  0999 V2000
   -0.8100  -25.9600   19.3710 N   0  0  0  0  0  0  0  0  0  0  0  0
   -0.3640  -24.9310   20.3060 C   0  0  2  0  0  0  0  0  0  0  0  0
    0.5870  -23.9520   19.6220 C   0  0  0  0  0  0  0  0  0  0  0  0
    1.8060  -24.0850   19.7190 O   0  0  0  0  0  0  0  0  0  0  0  0
    0.3090  -25.5700   21.5230 C   0  0  0  0  0  0  0  0  0  0  0  0
    0.0120  -22.9670   18.9390 N   0  0  0  0  0  0  0  0  0  0  0  0
    0.7720  -22.0280   18.1140 C   0  0  2  0  0  0  0  0  0  0  0  0
    1.9700  -21.4070   18.8280 C   0  0  0  0  0  0  0  0  0  0  0  0
    3.0900  -21.4440   18.3200 O   0  0  0  0  0  0  0  0  0  0  0  0
   -0.1250  -20.8990   17.5820 C   0  0  2  0  0  0  0  0  0  0  0  0
   -1.3260  -21.4840   16.8360 C   0  0  0  0  0  0  0  0  0  0  0  0
    0.6750  -19.9640   16.6860 C   0  0  0  0  0  0  0  0  0  0  0  0
   -2.2150  -20.4420   16.1870 C   0  0  0  0  0  0  0  0  0  0  0  0
    1.7260  -20.8290   20.0000 N   0  0  0  0  0  0  0  0  0  0  0  0
    2.7910  -20.2050   20.7780 C   0  0  2  0  0  0  0  0  0  0  0  0
    3.9170  -21.1920   21.0840 C   0  0  0  0  0  0  0  0  0  0  0  0
    5.0970  -20.8540   20.9860 O   0  0  0  0  0  0  0  0  0  0  0  0
    2.2380  -19.6220   22.0800 C   0  0  0  0  0  0  0  0  0  0  0  0
    3.2950  -19.2030   23.1010 C   0  0  0  0  0  0  0  0  0  0  0  0
    4.0870  -18.0030   22.6010 C   0  0  0  0  0  0  0  0  0  0  0  0
    2.6480  -18.9040   24.4410 C   0  0  0  0  0  0  0  0  0  0  0  0
    3.5420  -22.4110   21.4550 N   0  0  0  0  0  0  0  0  0  0  0  0
    4.5110  -23.4550   21.7740 C   0  0  2  0  0  0  0  0  0  0  0  0
    5.3990  -23.7710   20.5730 C   0  0  0  0  0  0  0  0  0  0  0  0
    6.6000  -24.0070   20.7140 O   0  0  0  0  0  0  0  0  0  0  0  0
    3.7820  -24.7190   22.2400 C   0  0  0  0  0  0  0  0  0  0  0  0
    4.6910  -25.8700   22.5370 C   0  0  0  0  0  0  0  0  0  0  0  0
    4.9110  -26.8950   21.6410 N   0  0  0  0  0  0  0  0  0  0  0  0
    5.4310  -26.1630   23.6320 C   0  0  0  0  0  0  0  0  0  0  0  0
    5.7500  -27.7670   22.1700 C   0  0  0  0  0  0  0  0  0  0  0  0
    6.0810  -27.3460   23.3780 N   0  0  0  0  0  0  0  0  0  0  0  0
    4.7990  -23.7620   19.3890 N   0  0  0  0  0  0  0  0  0  0  0  0
    5.5150  -24.0980   18.1660 C   0  0  2  0  0  0  0  0  0  0  0  0
    6.4430  -22.9700   17.7290 C   0  0  0  0  0  0  0  0  0  0  0  0
    7.5760  -23.2100   17.3130 O   0  0  0  0  0  0  0  0  0  0  0  0
    4.5210  -24.4220   17.0530 C   0  0  0  0  0  0  0  0  0  0  0  0
    5.1620  -24.8760   15.7560 C   0  0  0  0  0  0  0  0  0  0  0  0
    4.1080  -25.1520   14.6980 C   0  0  0  0  0  0  0  0  0  0  0  0
    3.2680  -23.9820   14.4610 N   0  0  0  0  0  0  0  0  0  0  0  0
    3.6150  -22.9610   13.6860 C   0  0  0  0  0  0  0  0  0  0  0  0
    4.7900  -22.9590   13.0710 N   0  0  0  0  0  0  0  0  0  0  0  0
    2.7890  -21.9380   13.5270 N   0  0  0  0  0  0  0  0  0  0  0  0
    5.9540  -21.7380   17.8190 N   0  0  0  0  0  0  0  0  0  0  0  0
    6.7580  -20.5760   17.4630 C   0  0  2  0  0  0  0  0  0  0  0  0
    7.9570  -20.4490   18.3940 C   0  0  0  0  0  0  0  0  0  0  0  0
    9.0300  -20.0110   17.9820 O   0  0  0  0  0  0  0  0  0  0  0  0
    5.9100  -19.3040   17.4990 C   0  0  0  0  0  0  0  0  0  0  0  0
    4.7150  -19.2810   16.5440 C   0  0  0  0  0  0  0  0  0  0  0  0
    4.0000  -17.9420   16.5980 C   0  0  0  0  0  0  0  0  0  0  0  0
    5.1610  -19.5890   15.1220 C   0  0  0  0  0  0  0  0  0  0  0  0
    7.7690  -20.8350   19.6500 N   0  0  0  0  0  0  0  0  0  0  0  0
    8.8510  -20.8190   20.6290 C   0  0  2  0  0  0  0  0  0  0  0  0
    9.9280  -21.8420   20.2850 C   0  0  0  0  0  0  0  0  0  0  0  0
   11.1070  -21.6280   20.5660 O   0  0  0  0  0  0  0  0  0  0  0  0
    8.3100  -21.0850   22.0340 C   0  0  0  0  0  0  0  0  0  0  0  0
    7.8040  -19.8760   22.8230 C   0  0  0  0  0  0  0  0  0  0  0  0
    7.0900  -20.3240   24.0920 C   0  0  0  0  0  0  0  0  0  0  0  0
    8.9570  -18.9410   23.1520 C   0  0  0  0  0  0  0  0  0  0  0  0
    9.5150  -22.9570   19.6850 N   0  0  0  0  0  0  0  0  0  0  0  0
   10.4490  -24.0030   19.2760 C   0  0  2  0  0  0  0  0  0  0  0  0
   11.1680  -23.6360   17.9820 C   0  0  0  0  0  0  0  0  0  0  0  0
   12.3970  -23.5770   17.9410 O   0  0  0  0  0  0  0  0  0  0  0  0
    9.7320  -25.3470   19.1190 C   0  0  0  0  0  0  0  0  0  0  0  0
    9.8170  -26.2430   20.3420 C   0  0  0  0  0  0  0  0  0  0  0  0
    9.0920  -27.5620   20.1520 C   0  0  0  0  0  0  0  0  0  0  0  0
    8.2150  -27.6860   19.2960 O   0  0  0  0  0  0  0  0  0  0  0  0
    9.4560  -28.5570   20.9540 N   0  0  0  0  0  0  0  0  0  0  0  0
   10.3980  -23.3930   16.9270 N   0  0  0  0  0  0  0  0  0  0  0  0
   10.9660  -23.0040   15.6410 C   0  0  2  0  0  0  0  0  0  0  0  0
   11.7580  -21.7060   15.7630 C   0  0  0  0  0  0  0  0  0  0  0  0
   12.0900  -21.0740   14.7600 O   0  0  0  0  0  0  0  0  0  0  0  0
    9.8630  -22.8490   14.5910 C   0  0  0  0  0  0  0  0  0  0  0  0
  2  1  1  0
  3  2  1  0
  4  3  2  0
  2  5  1  1
  6  3  1  0
  7  6  1  1
  8  7  1  0
  9  8  2  0
 10  7  1  0
 11 10  1  0
 10 12  1  6
 13 11  1  0
 14  8  1  0
 15 14  1  0
 16 15  1  0
 17 16  2  0
 15 18  1  1
 19 18  1  0
 20 19  1  0
 21 19  1  0
 22 16  1  0
 23 22  1  0
 24 23  1  0
 25 24  2  0
 23 26  1  6
 27 26  1  0
 28 27  1  0
 29 27  2  0
 30 28  2  0
 31 29  1  0
 31 30  1  0
 32 24  1  0
 33 32  1  0
 34 33  1  0
 35 34  2  0
 33 36  1  6
 37 36  1  0
 38 37  1  0
 39 38  1  0
 40 39  1  0
 41 40  1  0
 42 40  2  0
 43 34  1  0
 44 43  1  0
 45 44  1  0
 46 45  2  0
 44 47  1  1
 48 47  1  0
 49 48  1  0
 50 48  1  0
 51 45  1  0
 52 51  1  0
 53 52  1  0
 54 53  2  0
 52 55  1  1
 56 55  1  0
 57 56  1  0
 58 56  1  0
 59 53  1  0
 60 59  1  0
 61 60  1  0
 62 61  2  0
 60 63  1  6
 64 63  1  0
 65 64  1  0
 66 65  2  0
 67 65  1  0
 68 61  1  0
 69 68  1  0
 70 69  1  0
 71 70  2  0
 69 72  1  6
M  END
$$$$
5TLU
     RDKit          3D

 79 79  0  0  0  0  0  0  0  0999 V2000
   -7.3060  -40.5080  -34.9050 N   0  0  0  0  0  0  0  0  0  0  0  0
   -6.9370  -39.3200  -34.1440 C   0  0  2  0  0  0  0  0  0  0  0  0
   -5.9900  -38.4420  -34.9560 C   0  0  0  0  0  0  0  0  0  0  0  0
   -4.8140  -38.7690  -35.1200 O   0  0  0  0  0  0  0  0  0  0  0  0
   -6.2900  -39.7160  -32.8160 C   0  0  0  0  0  0  0  0  0  0  0  0
   -6.2350  -38.5990  -31.7900 C   0  0  0  0  0  0  0  0  0  0  0  0
   -7.6280  -38.2090  -31.3270 C   0  0  0  0  0  0  0  0  0  0  0  0
   -7.5700  -37.4650  -30.0070 C   0  0  0  0  0  0  0  0  0  0  0  0
   -8.9170  -37.0690  -29.5110 N   0  0  0  0  0  0  0  0  0  0  0  0
   -6.5120  -37.3200  -35.4560 N   0  0  0  0  0  0  0  0  0  0  0  0
   -5.7520  -36.4890  -36.3870 C   0  0  2  0  0  0  0  0  0  0  0  0
   -4.5530  -35.8560  -35.6910 C   0  0  0  0  0  0  0  0  0  0  0  0
   -3.4310  -35.8820  -36.2110 O   0  0  0  0  0  0  0  0  0  0  0  0
   -6.6650  -35.4240  -37.0190 C   0  0  2  0  0  0  0  0  0  0  0  0
   -7.8080  -36.0940  -37.7850 C   0  0  0  0  0  0  0  0  0  0  0  0
   -5.8610  -34.5100  -37.9320 C   0  0  0  0  0  0  0  0  0  0  0  0
   -8.7980  -35.1210  -38.3860 C   0  0  0  0  0  0  0  0  0  0  0  0
   -4.7730  -35.2700  -34.5110 N   0  0  0  0  0  0  0  0  0  0  0  0
   -3.6820  -34.6370  -33.7750 C   0  0  2  0  0  0  0  0  0  0  0  0
   -2.5670  -35.6340  -33.4860 C   0  0  0  0  0  0  0  0  0  0  0  0
   -1.3810  -35.3260  -33.6550 O   0  0  0  0  0  0  0  0  0  0  0  0
   -4.2110  -34.0290  -32.4760 C   0  0  0  0  0  0  0  0  0  0  0  0
   -3.1720  -33.4810  -31.4970 C   0  0  0  0  0  0  0  0  0  0  0  0
   -2.3900  -32.3400  -32.1220 C   0  0  0  0  0  0  0  0  0  0  0  0
   -3.8400  -33.0330  -30.2090 C   0  0  0  0  0  0  0  0  0  0  0  0
   -2.9350  -36.8400  -33.0480 N   0  0  0  0  0  0  0  0  0  0  0  0
   -1.9470  -37.8890  -32.8230 C   0  0  2  0  0  0  0  0  0  0  0  0
   -1.1740  -38.1980  -34.0990 C   0  0  0  0  0  0  0  0  0  0  0  0
    0.0440  -38.4050  -34.0620 O   0  0  0  0  0  0  0  0  0  0  0  0
   -2.6450  -39.1420  -32.2930 C   0  0  0  0  0  0  0  0  0  0  0  0
   -1.7210  -40.2870  -32.0170 C   0  0  0  0  0  0  0  0  0  0  0  0
   -1.2420  -41.1140  -33.0100 N   0  0  0  0  0  0  0  0  0  0  0  0
   -1.2040  -40.7540  -30.8560 C   0  0  0  0  0  0  0  0  0  0  0  0
   -0.4610  -42.0350  -32.4740 C   0  0  0  0  0  0  0  0  0  0  0  0
   -0.4230  -41.8400  -31.1690 N   0  0  0  0  0  0  0  0  0  0  0  0
   -1.8650  -38.2150  -35.2410 N   0  0  0  0  0  0  0  0  0  0  0  0
   -1.2070  -38.5150  -36.5090 C   0  0  2  0  0  0  0  0  0  0  0  0
   -0.2050  -37.4270  -36.8860 C   0  0  0  0  0  0  0  0  0  0  0  0
    0.9460  -37.7220  -37.2300 O   0  0  0  0  0  0  0  0  0  0  0  0
   -2.2560  -38.6920  -37.6090 C   0  0  0  0  0  0  0  0  0  0  0  0
   -1.6940  -39.1810  -38.9340 C   0  0  0  0  0  0  0  0  0  0  0  0
   -2.6990  -39.0070  -40.0620 C   0  0  0  0  0  0  0  0  0  0  0  0
   -2.8980  -37.6010  -40.4010 N   0  0  0  0  0  0  0  0  0  0  0  0
   -3.6980  -37.1720  -41.3710 C   0  0  0  0  0  0  0  0  0  0  0  0
   -4.3810  -38.0410  -42.1030 N   0  0  0  0  0  0  0  0  0  0  0  0
   -3.8150  -35.8730  -41.6110 N   0  0  0  0  0  0  0  0  0  0  0  0
   -0.6270  -36.1610  -36.8260 N   0  0  0  0  0  0  0  0  0  0  0  0
    0.2500  -35.0630  -37.2240 C   0  0  2  0  0  0  0  0  0  0  0  0
    1.4220  -34.9190  -36.2650 C   0  0  0  0  0  0  0  0  0  0  0  0
    2.5590  -34.6770  -36.6930 O   0  0  0  0  0  0  0  0  0  0  0  0
   -0.5510  -33.7640  -37.3050 C   0  0  0  0  0  0  0  0  0  0  0  0
   -1.6020  -33.7240  -38.4150 C   0  0  0  0  0  0  0  0  0  0  0  0
   -2.3330  -32.3920  -38.4190 C   0  0  0  0  0  0  0  0  0  0  0  0
   -0.9500  -33.9850  -39.7650 C   0  0  0  0  0  0  0  0  0  0  0  0
    1.1640  -35.0750  -34.9660 N   0  0  0  0  0  0  0  0  0  0  0  0
    2.2520  -35.1050  -33.9950 C   0  0  2  0  0  0  0  0  0  0  0  0
    3.2270  -36.2360  -34.2940 C   0  0  0  0  0  0  0  0  0  0  0  0
    4.4420  -36.0810  -34.1220 O   0  0  0  0  0  0  0  0  0  0  0  0
    1.6870  -35.2460  -32.5820 C   0  0  0  0  0  0  0  0  0  0  0  0
    1.3300  -33.9500  -31.8460 C   0  0  0  0  0  0  0  0  0  0  0  0
    0.5290  -34.2270  -30.5770 C   0  0  0  0  0  0  0  0  0  0  0  0
    2.5930  -33.1710  -31.5180 C   0  0  0  0  0  0  0  0  0  0  0  0
    2.7100  -37.3820  -34.7430 N   0  0  0  0  0  0  0  0  0  0  0  0
    3.5540  -38.5450  -34.9870 C   0  0  2  0  0  0  0  0  0  0  0  0
    4.4570  -38.3760  -36.2010 C   0  0  0  0  0  0  0  0  0  0  0  0
    5.4700  -39.0760  -36.2990 O   0  0  0  0  0  0  0  0  0  0  0  0
    2.6880  -39.7850  -35.1660 C   0  0  0  0  0  0  0  0  0  0  0  0
    3.3330  -41.0780  -34.7150 C   0  0  0  0  0  0  0  0  0  0  0  0
    2.3690  -42.2500  -34.7600 C   0  0  0  0  0  0  0  0  0  0  0  0
    1.4880  -42.3090  -35.6170 O   0  0  0  0  0  0  0  0  0  0  0  0
    2.5240  -43.1830  -33.8260 N   0  0  0  0  0  0  0  0  0  0  0  0
    4.1070  -37.4910  -37.1310 N   0  0  0  0  0  0  0  0  0  0  0  0
    4.9150  -37.2740  -38.3300 C   0  0  2  0  0  0  0  0  0  0  0  0
    6.3100  -36.7570  -37.9950 C   0  0  0  0  0  0  0  0  0  0  0  0
    7.2870  -37.1100  -38.6580 O   0  0  0  0  0  0  0  0  0  0  0  0
    4.2150  -36.2980  -39.2750 C   0  0  0  0  0  0  0  0  0  0  0  0
    3.3250  -36.9990  -40.2770 C   0  0  0  0  0  0  0  0  0  0  0  0
    3.8400  -37.4060  -41.3380 O   0  0  0  0  0  0  0  0  0  0  0  0
    2.1140  -37.1430  -40.0070 O   0  0  0  0  0  0  0  0  0  0  0  0
  2  1  1  6
  3  2  1  0
  4  3  2  0
  5  2  1  0
  6  5  1  0
  7  6  1  0
  8  7  1  0
  9  8  1  0
 10  3  1  0
 11 10  1  1
 12 11  1  0
 13 12  2  0
 14 11  1  0
 15 14  1  0
 14 16  1  6
 17 15  1  0
 18 12  1  0
 19 18  1  0
 20 19  1  0
 21 20  2  0
 19 22  1  1
 23 22  1  0
 24 23  1  0
 25 23  1  0
 26 20  1  0
 27 26  1  0
 28 27  1  0
 29 28  2  0
 27 30  1  6
 31 30  1  0
 32 31  1  0
 33 31  2  0
 34 32  2  0
 35 34  1  0
 35 33  1  0
 36 28  1  0
 37 36  1  0
 38 37  1  0
 39 38  2  0
 37 40  1  6
 41 40  1  0
 42 41  1  0
 43 42  1  0
 44 43  1  0
 45 44  1  0
 46 44  2  0
 47 38  1  0
 48 47  1  0
 49 48  1  0
 50 49  2  0
 48 51  1  1
 52 51  1  0
 53 52  1  0
 54 52  1  0
 55 49  1  0
 56 55  1  0
 57 56  1  0
 58 57  2  0
 56 59  1  1
 60 59  1  0
 61 60  1  0
 62 60  1  0
 63 57  1  0
 64 63  1  0
 65 64  1  0
 66 65  2  0
 64 67  1  6
 68 67  1  0
 69 68  1  0
 70 69  2  0
 71 69  1  0
 72 65  1  0
 73 72  1  0
 74 73  1  0
 75 74  2  0
 73 76  1  6
 77 76  1  0
 78 77  2  0
 79 77  1  0
M  END
$$$$
3UUA
     RDKit          3D

 76 76  0  0  0  0  0  0  0  0999 V2000
   17.9690  -17.8200    8.7360 N   0  0  0  0  0  0  0  0  0  0  0  0
   18.0170  -16.6430    7.8760 C   0  0  2  0  0  0  0  0  0  0  0  0
   16.9440  -15.6290    8.2800 C   0  0  0  0  0  0  0  0  0  0  0  0
   15.7670  -15.7960    7.9680 O   0  0  0  0  0  0  0  0  0  0  0  0
   17.8740  -17.0560    6.4110 C   0  0  0  0  0  0  0  0  0  0  0  0
   18.1170  -15.9340    5.4320 C   0  0  0  0  0  0  0  0  0  0  0  0
   18.0640  -16.4430    4.0090 C   0  0  0  0  0  0  0  0  0  0  0  0
   18.2490  -15.3000    3.0340 C   0  0  0  0  0  0  0  0  0  0  0  0
   18.2030  -15.7740    1.6300 N   0  0  0  0  0  0  0  0  0  0  0  0
   17.3820  -14.5680    8.9550 N   0  0  0  0  0  0  0  0  0  0  0  0
   16.5130  -13.6510    9.6990 C   0  0  2  0  0  0  0  0  0  0  0  0
   15.3010  -13.0660    8.9550 C   0  0  0  0  0  0  0  0  0  0  0  0
   14.2040  -13.0090    9.5130 O   0  0  0  0  0  0  0  0  0  0  0  0
   17.3460  -12.5140   10.3400 C   0  0  2  0  0  0  0  0  0  0  0  0
   18.5550  -13.0950   11.0840 C   0  0  0  0  0  0  0  0  0  0  0  0
   16.4900  -11.6820   11.2830 C   0  0  0  0  0  0  0  0  0  0  0  0
   19.5950  -12.0750   11.4920 C   0  0  0  0  0  0  0  0  0  0  0  0
   15.4950  -12.6260    7.7150 N   0  0  0  0  0  0  0  0  0  0  0  0
   14.3970  -12.0570    6.9330 C   0  0  2  0  0  0  0  0  0  0  0  0
   13.2850  -13.0770    6.7050 C   0  0  0  0  0  0  0  0  0  0  0  0
   12.1060  -12.7930    6.9260 O   0  0  0  0  0  0  0  0  0  0  0  0
   14.9110  -11.5310    5.5920 C   0  0  0  0  0  0  0  0  0  0  0  0
   13.8650  -11.1090    4.5580 C   0  0  0  0  0  0  0  0  0  0  0  0
   13.0130   -9.9630    5.0740 C   0  0  0  0  0  0  0  0  0  0  0  0
   14.5480  -10.7210    3.2540 C   0  0  0  0  0  0  0  0  0  0  0  0
   13.6810  -14.2600    6.2470 N   0  0  0  0  0  0  0  0  0  0  0  0
   12.7800  -15.3900    6.0570 C   0  0  2  0  0  0  0  0  0  0  0  0
   11.9200  -15.5880    7.2990 C   0  0  0  0  0  0  0  0  0  0  0  0
   10.7140  -15.8220    7.2110 O   0  0  0  0  0  0  0  0  0  0  0  0
   13.6190  -16.6440    5.7970 C   0  0  0  0  0  0  0  0  0  0  0  0
   12.8290  -17.8380    5.3710 C   0  0  0  0  0  0  0  0  0  0  0  0
   12.5200  -18.8760    6.2290 N   0  0  0  0  0  0  0  0  0  0  0  0
   12.3060  -18.1840    4.1700 C   0  0  0  0  0  0  0  0  0  0  0  0
   11.8340  -19.7940    5.5810 C   0  0  0  0  0  0  0  0  0  0  0  0
   11.6900  -19.3990    4.3250 N   0  0  0  0  0  0  0  0  0  0  0  0
   12.5620  -15.4770    8.4560 N   0  0  0  0  0  0  0  0  0  0  0  0
   11.9200  -15.7110    9.7410 C   0  0  2  0  0  0  0  0  0  0  0  0
   10.9150  -14.6140   10.0820 C   0  0  0  0  0  0  0  0  0  0  0  0
    9.8120  -14.8920   10.5530 O   0  0  0  0  0  0  0  0  0  0  0  0
   12.9860  -15.8110   10.8340 C   0  0  0  0  0  0  0  0  0  0  0  0
   12.5160  -16.4820   12.1080 C   0  0  0  0  0  0  0  0  0  0  0  0
   13.6860  -16.8330   13.0200 C   0  0  0  0  0  0  0  0  0  0  0  0
   14.4190  -15.6520   13.4680 N   0  0  0  0  0  0  0  0  0  0  0  0
   13.8980  -14.6980   14.2330 C   0  0  0  0  0  0  0  0  0  0  0  0
   12.6330  -14.7780   14.6250 N   0  0  0  0  0  0  0  0  0  0  0  0
   14.6360  -13.6590   14.5990 N   0  0  0  0  0  0  0  0  0  0  0  0
   11.3030  -13.3660    9.8380 N   0  0  0  0  0  0  0  0  0  0  0  0
   10.4550  -12.2210   10.1480 C   0  0  2  0  0  0  0  0  0  0  0  0
    9.2260  -12.1670    9.2430 C   0  0  0  0  0  0  0  0  0  0  0  0
    8.1490  -11.7490    9.6680 O   0  0  0  0  0  0  0  0  0  0  0  0
   11.2570  -10.9220   10.0390 C   0  0  0  0  0  0  0  0  0  0  0  0
   12.4840  -10.8310   10.9510 C   0  0  0  0  0  0  0  0  0  0  0  0
   13.3540   -9.6370   10.5900 C   0  0  0  0  0  0  0  0  0  0  0  0
   12.0680  -10.7760   12.4140 C   0  0  0  0  0  0  0  0  0  0  0  0
    9.3930  -12.5910    7.9940 N   0  0  0  0  0  0  0  0  0  0  0  0
    8.2860  -12.6190    7.0440 C   0  0  2  0  0  0  0  0  0  0  0  0
    7.2390  -13.6590    7.4360 C   0  0  0  0  0  0  0  0  0  0  0  0
    6.0470  -13.4720    7.1950 O   0  0  0  0  0  0  0  0  0  0  0  0
    8.7930  -12.8800    5.6240 C   0  0  0  0  0  0  0  0  0  0  0  0
    9.2530  -11.6520    4.8340 C   0  0  0  0  0  0  0  0  0  0  0  0
    9.9360  -12.0640    3.5360 C   0  0  0  0  0  0  0  0  0  0  0  0
    8.0740  -10.7280    4.5590 C   0  0  0  0  0  0  0  0  0  0  0  0
    7.6930  -14.7540    8.0390 N   0  0  0  0  0  0  0  0  0  0  0  0
    6.7850  -15.7840    8.5320 C   0  0  2  0  0  0  0  0  0  0  0  0
    6.1330  -15.3470    9.8400 C   0  0  0  0  0  0  0  0  0  0  0  0
    5.0300  -15.7830   10.1710 O   0  0  0  0  0  0  0  0  0  0  0  0
    7.5200  -17.1140    8.7210 C   0  0  0  0  0  0  0  0  0  0  0  0
    7.8790  -17.8150    7.4200 C   0  0  0  0  0  0  0  0  0  0  0  0
    8.4530  -19.2010    7.6420 C   0  0  0  0  0  0  0  0  0  0  0  0
    9.3580  -19.3890    8.4550 O   0  0  0  0  0  0  0  0  0  0  0  0
    7.9220  -20.1830    6.9220 N   0  0  0  0  0  0  0  0  0  0  0  0
    6.8260  -14.4820   10.5760 N   0  0  0  0  0  0  0  0  0  0  0  0
    6.3190  -13.9450   11.8360 C   0  0  2  0  0  0  0  0  0  0  0  0
    6.2140  -15.0180   12.9140 C   0  0  0  0  0  0  0  0  0  0  0  0
    5.7840  -14.7430   14.0340 O   0  0  0  0  0  0  0  0  0  0  0  0
    4.9600  -13.2700   11.6310 C   0  0  0  0  0  0  0  0  0  0  0  0
  2  1  1  1
  3  2  1  0
  4  3  2  0
  5  2  1  0
  6  5  1  0
  7  6  1  0
  8  7  1  0
  9  8  1  0
 10  3  1  0
 11 10  1  6
 12 11  1  0
 13 12  2  0
 14 11  1  0
 15 14  1  0
 14 16  1  1
 17 15  1  0
 18 12  1  0
 19 18  1  0
 20 19  1  0
 21 20  2  0
 19 22  1  6
 23 22  1  0
 24 23  1  0
 25 23  1  0
 26 20  1  0
 27 26  1  0
 28 27  1  0
 29 28  2  0
 27 30  1  1
 31 30  1  0
 32 31  1  0
 33 31  2  0
 34 32  2  0
 35 33  1  0
 35 34  1  0
 36 28  1  0
 37 36  1  0
 38 37  1  0
 39 38  2  0
 37 40  1  1
 41 40  1  0
 42 41  1  0
 43 42  1  0
 44 43  1  0
 45 44  1  0
 46 44  2  0
 47 38  1  0
 48 47  1  0
 49 48  1  0
 50 49  2  0
 48 51  1  6
 52 51  1  0
 53 52  1  0
 54 52  1  0
 55 49  1  0
 56 55  1  0
 57 56  1  0
 58 57  2  0
 56 59  1  6
 60 59  1  0
 61 60  1  0
 62 60  1  0
 63 57  1  0
 64 63  1  0
 65 64  1  0
 66 65  2  0
 64 67  1  1
 68 67  1  0
 69 68  1  0
 70 69  2  0
 71 69  1  0
 72 65  1  0
 73 72  1  0
 74 73  1  0
 75 74  2  0
 73 76  1  6
M  END
$$$$
5DIE
     RDKit          3D

 21 23  0  0  0  0  0  0  0  0999 V2000
   -8.6100   -3.2200   19.2660 C   0  0  0  0  0  0  0  0  0  0  0  0
   -8.5180   -3.7880   16.7450 O   0  0  0  0  0  0  0  0  0  0  0  0
   -4.1740   -2.3610   24.0740 C   0  0  0  0  0  0  0  0  0  0  0  0
   -2.8380   -2.4120   24.2250 C   0  0  0  0  0  0  0  0  0  0  0  0
   -4.7300   -2.5390   22.8640 C   0  0  0  0  0  0  0  0  0  0  0  0
   -4.5860   -2.9720   20.3790 C   0  0  1  0  0  0  0  0  0  0  0  0
   -5.5780   -1.8680   19.9780 C   0  0  0  0  0  0  0  0  0  0  0  0
   -5.5730   -2.0920   17.4610 C   0  0  0  0  0  0  0  0  0  0  0  0
   -7.1760   -3.4780   18.7600 C   0  0  2  0  0  0  0  0  0  0  0  0
   -0.7680   -2.6930   23.2660 F   0  0  0  0  0  0  0  0  0  0  0  0
   -6.2210   -3.0730   16.4750 C   0  0  0  0  0  0  0  0  0  0  0  0
   -2.0870   -2.6430   23.1330 C   0  0  0  0  0  0  0  0  0  0  0  0
   -2.6530   -2.8200   21.9280 C   0  0  0  0  0  0  0  0  0  0  0  0
   -2.2450   -2.2360   25.4390 O   0  0  0  0  0  0  0  0  0  0  0  0
   -6.5770   -4.5350   19.7120 C   0  0  0  0  0  0  0  0  0  0  0  0
   -3.9890   -2.7770   21.7680 C   0  0  0  0  0  0  0  0  0  0  0  0
   -1.8680   -3.0450   20.8880 F   0  0  0  0  0  0  0  0  0  0  0  0
   -6.4460   -2.1140   18.7340 C   0  0  1  0  0  0  0  0  0  0  0  0
   -5.1020   -4.3970   20.1050 C   0  0  0  0  0  0  0  0  0  0  0  0
   -7.2210   -3.9030   17.2810 C   0  0  2  0  0  0  0  0  0  0  0  0
   -4.9540   -2.1340   25.1240 F   0  0  0  0  0  0  0  0  0  0  0  0
  4  3  1  0
  5  3  1  0
  7  6  1  0
  9  1  1  1
 11  8  1  0
 12 10  1  0
 12  4  1  0
 13 12  1  0
 14  4  1  0
 15  9  1  0
  6 16  1  1
 16 13  1  0
 16  5  1  0
 17 13  1  0
 18  9  1  0
 18  8  1  6
 18  7  1  0
 19 15  1  0
 19  6  1  0
 20 11  1  0
 20  9  1  0
 20  2  1  6
 21  3  1  0
M  END
$$$$
8DUC
     RDKit          3D

 36 41  0  0  0  0  0  0  0  0999 V2000
   31.4410    0.7240  -28.4180 N   0  0  0  0  0  0  0  0  0  0  0  0
   27.2190    0.5880  -27.5410 C   0  0  0  0  0  0  0  0  0  0  0  0
   28.7590    0.6470  -27.6670 C   0  0  2  0  0  0  0  0  0  0  0  0
   29.3680    1.7270  -27.5070 C   0  0  1  0  0  0  0  0  0  0  0  0
   29.4000   -0.6310  -28.1140 C   0  0  0  0  0  0  0  0  0  0  0  0
   30.8720   -0.6340  -28.4040 C   0  0  1  0  0  0  0  0  0  0  0  0
   32.6380    1.0870  -29.1690 C   0  0  1  0  0  0  0  0  0  0  0  0
   35.1270   -0.8730  -31.3310 C   0  0  0  0  0  0  0  0  0  0  0  0
   32.8070   -1.1130  -32.2020 C   0  0  0  0  0  0  0  0  0  0  0  0
   31.4920    1.9930  -26.3010 C   0  0  0  0  0  0  0  0  0  0  0  0
   32.6360    2.5050  -23.7780 C   0  0  1  0  0  0  0  0  0  0  0  0
   33.1400    3.2220  -24.9960 C   0  0  0  0  0  0  0  0  0  0  0  0
   32.6130    2.9870  -26.1570 C   0  0  0  0  0  0  0  0  0  0  0  0
   33.9630    4.2980  -20.5660 C   0  0  2  0  0  0  0  0  0  0  0  0
   32.8760    4.9130  -18.6590 C   0  0  0  0  0  0  0  0  0  0  0  0
   33.7210    6.8470  -18.7320 C   0  0  0  0  0  0  0  0  0  0  0  0
   28.5690    2.9540  -27.1010 C   0  0  0  0  0  0  0  0  0  0  0  0
   33.3210    0.1640  -30.1730 C   0  0  2  0  0  0  0  0  0  0  0  0
   34.6080   -0.0250  -30.1960 C   0  0  0  0  0  0  0  0  0  0  0  0
   34.3060   -1.3630  -32.2200 C   0  0  0  0  0  0  0  0  0  0  0  0
   32.3680   -0.3830  -31.2340 C   0  0  0  0  0  0  0  0  0  0  0  0
   31.0520    1.3200  -25.2790 C   0  0  0  0  0  0  0  0  0  0  0  0
   31.6940    1.6170  -23.9280 C   0  0  0  0  0  0  0  0  0  0  0  0
   27.2900    2.9140  -26.9660 C   0  0  0  0  0  0  0  0  0  0  0  0
   32.8560    3.7650  -21.6170 C   0  0  0  0  0  0  0  0  0  0  0  0
   33.8430    3.9170  -19.2330 C   0  0  0  0  0  0  0  0  0  0  0  0
   33.8060    5.8000  -20.5820 C   0  0  0  0  0  0  0  0  0  0  0  0
   33.9130    8.2480  -19.3570 C   0  0  0  0  0  0  0  0  0  0  0  0
   26.5160    1.6640  -27.1910 C   0  0  0  0  0  0  0  0  0  0  0  0
   31.7420   -1.8270  -28.8590 C   0  0  0  0  0  0  0  0  0  0  0  0
   31.2800   -1.8160  -27.4890 C   0  0  0  0  0  0  0  0  0  0  0  0
   30.8860    1.8070  -27.6320 C   0  0  1  0  0  0  0  0  0  0  0  0
   33.0870    6.0900  -19.4190 N   0  0  0  0  0  0  0  0  0  0  0  0
   25.1570    1.6350  -27.0320 O   0  0  0  0  0  0  0  0  0  0  0  0
   33.0260    2.1870  -29.1200 O   0  0  0  0  0  0  0  0  0  0  0  0
   33.2720    2.7500  -22.5180 O   0  0  0  0  0  0  0  0  0  0  0  0
  3  2  1  6
  4  3  1  0
  5  3  1  0
  6  5  1  6
  6  1  1  0
  7  1  1  0
 12 11  1  0
 13 10  1  0
 13 12  1  0
  4 17  1  1
 18  7  1  0
 18 19  1  6
 19  8  1  0
 20  9  1  0
 20  8  1  0
 21 18  1  0
 21  9  1  0
 22 10  1  0
 23 22  1  0
 23 11  1  0
 24 17  1  0
 14 25  1  6
 26 15  1  0
 26 14  1  0
 27 14  1  0
 28 16  1  0
 29  2  1  0
 29 24  1  0
 30  6  1  0
 31 30  1  0
 31  6  1  0
 32  4  1  0
 32  1  1  0
 32 10  1  1
 33 15  1  0
 33 27  1  0
 33 16  1  0
 34 29  1  0
  7 35  1  6
 11 36  1  6
 36 25  1  0
M  END
$$$$
9B25
     RDKit          3D

 74 78  0  0  0  0  0  0  0  0999 V2000
   30.4010   -8.4750   17.8880 C   0  0  0  0  0  0  0  0  0  0  0  0
   31.7500   -8.1470   20.1210 C   0  0  0  0  0  0  0  0  0  0  0  0
   31.2010   -5.4320   14.8340 C   0  0  0  0  0  0  0  0  0  0  0  0
   31.4000   -3.9290   18.9670 C   0  0  0  0  0  0  0  0  0  0  0  0
   29.2050   -3.3580   19.5930 C   0  0  0  0  0  0  0  0  0  0  0  0
   30.0480   -3.9720   18.7430 C   0  0  0  0  0  0  0  0  0  0  0  0
   25.3700    1.6430   21.3620 C   0  0  0  0  0  0  0  0  0  0  0  0
   21.0530    1.0940   21.3710 C   0  0  1  0  0  0  0  0  0  0  0  0
   23.3630    0.3330   20.7030 C   0  0  1  0  0  0  0  0  0  0  0  0
   31.6770   -4.5840   15.7860 C   0  0  0  0  0  0  0  0  0  0  0  0
   28.2230    1.2780   20.2820 C   0  0  2  0  0  0  0  0  0  0  0  0
   31.2830   -6.4990   16.8570 C   0  0  0  0  0  0  0  0  0  0  0  0
   31.8390   -3.2680   20.0710 C   0  0  0  0  0  0  0  0  0  0  0  0
   31.7500   -5.2010   16.9880 C   0  0  0  0  0  0  0  0  0  0  0  0
   28.0060   -0.2220   20.4620 C   0  0  2  0  0  0  0  0  0  0  0  0
   24.0170    1.1200   21.8550 C   0  0  2  0  0  0  0  0  0  0  0  0
   31.2060   -7.4060   17.9100 C   0  0  1  0  0  0  0  0  0  0  0  0
   28.7330   -0.7230   21.7220 C   0  0  2  0  0  0  0  0  0  0  0  0
   23.1150    2.2470   22.3530 C   0  0  2  0  0  0  0  0  0  0  0  0
   30.2740   -9.3540   18.9020 C   0  0  0  0  0  0  0  0  0  0  0  0
   30.9580   -9.2060   20.0580 C   0  0  0  0  0  0  0  0  0  0  0  0
   31.8480   -7.2850   19.0920 C   0  0  0  0  0  0  0  0  0  0  0  0
   21.6780    1.7930   22.5880 C   0  0  2  0  0  0  0  0  0  0  0  0
   30.9850   -2.6730   20.9170 C   0  0  0  0  0  0  0  0  0  0  0  0
   29.6430   -2.6900   20.6670 C   0  0  2  0  0  0  0  0  0  0  0  0
   27.8590    1.9470   21.6090 C   0  0  2  0  0  0  0  0  0  0  0  0
   21.9300   -0.0920   20.9580 C   0  0  1  0  0  0  0  0  0  0  0  0
   19.6340    0.7400   21.5570 C   0  0  1  0  0  0  0  0  0  0  0  0
   32.0220   -3.2900   15.4940 C   0  0  0  0  0  0  0  0  0  0  0  0
   31.8810   -2.8360   14.2150 C   0  0  0  0  0  0  0  0  0  0  0  0
   31.3760   -3.6510   13.2100 C   0  0  0  0  0  0  0  0  0  0  0  0
   31.0360   -4.9410   13.5620 C   0  0  0  0  0  0  0  0  0  0  0  0
   19.4960   -0.1370   22.5270 F   0  0  0  0  0  0  0  0  0  0  0  0
   18.9050    1.7710   21.8800 F   0  0  0  0  0  0  0  0  0  0  0  0
   19.1320    0.2220   20.4550 F   0  0  0  0  0  0  0  0  0  0  0  0
   26.5340    1.4610   22.0680 N   0  0  0  0  0  0  0  0  0  0  0  0
   30.8510  -10.1180   21.0760 O   0  0  0  0  0  0  0  0  0  0  0  0
   28.7680   -2.1000   21.5570 O   0  0  0  0  0  0  0  0  0  0  0  0
   32.2460   -4.5570   18.1210 O   0  0  0  0  0  0  0  0  0  0  0  0
   25.4480    2.2410   20.3170 O   0  0  0  0  0  0  0  0  0  0  0  0
   31.2280   -3.1350   11.9520 O   0  0  0  0  0  0  0  0  0  0  0  0
   30.9000   -6.8520   15.3830 S   0  0  0  0  0  0  0  0  0  0  0  0
   29.8660   -8.6820   17.1560 H   0  0  0  0  0  0  0  0  0  0  0  0
   32.2450   -8.0020   20.8950 H   0  0  0  0  0  0  0  0  0  0  0  0
   28.2960   -3.4160   19.4040 H   0  0  0  0  0  0  0  0  0  0  0  0
   29.6950   -4.4200   18.0080 H   0  0  0  0  0  0  0  0  0  0  0  0
   21.0810    1.7300   20.6390 H   0  0  0  0  0  0  0  0  0  0  0  0
   23.3910    0.8660   19.8930 H   0  0  0  0  0  0  0  0  0  0  0  0
   23.8940   -0.4560   20.5120 H   0  0  0  0  0  0  0  0  0  0  0  0
   27.6680    1.6210   19.5650 H   0  0  0  0  0  0  0  0  0  0  0  0
   29.1460    1.4650   20.0490 H   0  0  0  0  0  0  0  0  0  0  0  0
   32.7520   -3.2270   20.2440 H   0  0  0  0  0  0  0  0  0  0  0  0
   28.3350   -0.6980   19.6840 H   0  0  0  0  0  0  0  0  0  0  0  0
   27.0570   -0.4100   20.5360 H   0  0  0  0  0  0  0  0  0  0  0  0
   24.1320    0.5200   22.6080 H   0  0  0  0  0  0  0  0  0  0  0  0
   28.2330   -0.4880   22.5190 H   0  0  0  0  0  0  0  0  0  0  0  0
   29.6320   -0.3610   21.7620 H   0  0  0  0  0  0  0  0  0  0  0  0
   23.1050    2.9820   21.7200 H   0  0  0  0  0  0  0  0  0  0  0  0
   23.4580    2.6200   23.1800 H   0  0  0  0  0  0  0  0  0  0  0  0
   29.7040  -10.0830   18.8120 H   0  0  0  0  0  0  0  0  0  0  0  0
   32.4170   -6.5720   19.2750 H   0  0  0  0  0  0  0  0  0  0  0  0
   21.6540    1.1960   23.3520 H   0  0  0  0  0  0  0  0  0  0  0  0
   21.1380    2.5610   22.8340 H   0  0  0  0  0  0  0  0  0  0  0  0
   31.3090   -2.2460   21.6780 H   0  0  0  0  0  0  0  0  0  0  0  0
   27.8530    2.9060   21.4630 H   0  0  0  0  0  0  0  0  0  0  0  0
   28.5550    1.7310   22.2490 H   0  0  0  0  0  0  0  0  0  0  0  0
   21.9100   -0.7800   21.6410 H   0  0  0  0  0  0  0  0  0  0  0  0
   21.5690   -0.5170   20.1630 H   0  0  0  0  0  0  0  0  0  0  0  0
   32.3490   -2.7210   16.1530 H   0  0  0  0  0  0  0  0  0  0  0  0
   32.1280   -1.9630   14.0120 H   0  0  0  0  0  0  0  0  0  0  0  0
   30.6810   -5.4880   12.8990 H   0  0  0  0  0  0  0  0  0  0  0  0
   26.4610    1.0390   22.8130 H   0  0  0  0  0  0  0  0  0  0  0  0
   30.1620   -9.9220   21.5310 H   0  0  0  0  0  0  0  0  0  0  0  0
   30.4100   -3.0810   11.7710 H   0  0  0  0  0  0  0  0  0  0  0  0
  6  5  1  0
  6  4  1  0
 10  3  1  0
 13  4  1  0
 14 12  1  0
 14 10  1  0
 15 11  1  0
 16  9  1  0
 16  7  1  0
 17 12  1  1
 17  1  1  0
 18 15  1  0
 19 16  1  0
 20  1  1  0
 21 20  1  0
 21  2  1  0
 22 17  1  0
 22  2  1  0
 23  8  1  0
 23 19  1  0
 24 13  1  0
 25 24  1  0
 25  5  1  0
 26 11  1  0
 27  8  1  0
 27  9  1  0
 28  8  1  0
 29 10  1  0
 30 29  1  0
 31 30  1  0
 32 31  1  0
 32  3  1  0
 28 33  1  1
 34 28  1  0
 35 28  1  0
 36  7  1  0
 36 26  1  0
 37 21  1  0
 25 38  1  1
 38 18  1  0
 39 14  1  0
 39  4  1  0
 40  7  1  0
 41 31  1  0
 42 12  1  0
 42  3  1  0
 43  1  1  0
 44  2  1  0
 45  5  1  0
 46  6  1  0
  8 47  1  6
  9 48  1  6
 49  9  1  0
 11 50  1  6
 51 11  1  0
 52 13  1  0
 15 53  1  6
 54 15  1  0
 16 55  1  1
 18 56  1  1
 57 18  1  0
 19 58  1  6
 59 19  1  0
 60 20  1  0
 61 22  1  0
 23 62  1  1
 63 23  1  0
 64 24  1  0
 26 65  1  6
 66 26  1  0
 27 67  1  1
 68 27  1  0
 69 29  1  0
 70 30  1  0
 71 32  1  0
 72 36  1  0
 73 37  1  0
 74 41  1  0
M  END
$$$$
2AYR
     RDKit          3D

 37 41  0  0  0  0  0  0  0  0999 V2000
   32.2070    0.4660   28.2400 C   0  0  0  0  0  0  0  0  0  0  0  0
   29.8570    1.3550   28.2530 C   0  0  0  0  0  0  0  0  0  0  0  0
   27.9180   -0.0290   27.6560 C   0  0  0  0  0  0  0  0  0  0  0  0
   28.2180   -2.4130   27.0040 C   0  0  0  0  0  0  0  0  0  0  0  0
   32.8720    1.6290   27.7200 C   0  0  0  0  0  0  0  0  0  0  0  0
   26.5200   -0.1610   27.4720 C   0  0  0  0  0  0  0  0  0  0  0  0
   32.6480   -3.1980   25.8070 C   0  0  0  0  0  0  0  0  0  0  0  0
   34.2670    1.8030   27.9250 C   0  0  0  0  0  0  0  0  0  0  0  0
   33.2880   -3.2900   24.5500 C   0  0  0  0  0  0  0  0  0  0  0  0
   31.9560   -1.3950   23.7080 C   0  0  0  0  0  0  0  0  0  0  0  0
   35.0090    0.8240   28.6360 C   0  0  0  0  0  0  0  0  0  0  0  0
   32.9480   -2.3840   23.4780 C   0  0  0  0  0  0  0  0  0  0  0  0
   30.2020   -1.0240   27.5980 C   0  0  0  0  0  0  0  0  0  0  0  0
   30.7510    0.2590   28.0310 C   0  0  0  0  0  0  0  0  0  0  0  0
   28.7900   -1.1620   27.4180 C   0  0  0  0  0  0  0  0  0  0  0  0
   31.0320   -2.1570   27.3520 O   0  0  0  0  0  0  0  0  0  0  0  0
   31.6570   -2.2140   26.0460 C   0  0  0  0  0  0  0  0  0  0  0  0
   32.9800   -0.5030   28.9590 C   0  0  0  0  0  0  0  0  0  0  0  0
   28.4600    1.2130   28.0670 C   0  0  0  0  0  0  0  0  0  0  0  0
   26.8220   -2.5290   26.8260 C   0  0  0  0  0  0  0  0  0  0  0  0
   31.3180   -1.3050   24.9650 C   0  0  0  0  0  0  0  0  0  0  0  0
   34.3670   -0.3240   29.1540 C   0  0  0  0  0  0  0  0  0  0  0  0
   25.9730   -1.4110   27.0580 C   0  0  0  0  0  0  0  0  0  0  0  0
   24.6510   -1.5330   26.8790 O   0  0  0  0  0  0  0  0  0  0  0  0
   36.7580    1.0300   28.9080 S   0  0  2  0  0  0  0  0  0  0  0  0
   33.5370   -2.4060   22.1890 O   0  0  0  0  0  0  0  0  0  0  0  0
   38.0420   -0.2180   28.5040 C   0  0  0  0  0  0  0  0  0  0  0  0
   36.9320    1.3850   30.3880 O   0  0  0  0  0  0  0  0  0  0  0  0
   37.1800    2.3840   28.3060 O   0  0  0  0  0  0  0  0  0  0  0  0
   34.2630   -3.5730   21.7600 C   0  0  0  0  0  0  0  0  0  0  0  0
   33.2780   -4.5520   21.0860 C   0  0  0  0  0  0  0  0  0  0  0  0
   32.5200   -4.1440   19.9020 N   0  0  0  0  0  0  0  0  0  0  0  0
   33.4010   -3.4750   18.9190 C   0  0  0  0  0  0  0  0  0  0  0  0
   31.3630   -3.2510   20.2030 C   0  0  0  0  0  0  0  0  0  0  0  0
   32.6540   -3.3240   17.5790 C   0  0  0  0  0  0  0  0  0  0  0  0
   30.4990   -3.0460   18.9390 C   0  0  0  0  0  0  0  0  0  0  0  0
   31.3680   -2.4930   17.7890 C   0  0  0  0  0  0  0  0  0  0  0  0
  5  1  1  0
  6  3  1  0
  8  5  1  0
  9  7  1  0
 11  8  1  0
 12 10  1  0
 12  9  1  0
 14 13  1  0
 14  2  1  0
 14  1  1  0
 15  4  1  0
 15 13  1  0
 15  3  1  0
 16 13  1  0
 17  7  1  0
 17 16  1  0
 18  1  1  0
 19  3  1  0
 19  2  1  0
 20  4  1  0
 21 17  1  0
 21 10  1  0
 22 18  1  0
 22 11  1  0
 23 20  1  0
 23  6  1  0
 24 23  1  0
 25 11  1  0
 26 12  1  0
 25 27  1  6
 28 25  1  0
 29 25  1  0
 30 26  1  0
 31 30  1  0
 32 31  1  0
 33 32  1  0
 34 32  1  0
 35 33  1  0
 36 34  1  0
 37 36  1  0
 37 35  1  0
M  END
$$$$
8AR5
     RDKit          3D

 42 43  0  0  0  0  0  0  0  0999 V2000
  -13.0350   -7.9560   14.3680 N   0  0  0  0  0  0  0  0  0  0  0  0
  -13.9680   -9.1060   14.3660 C   0  0  2  0  0  0  0  0  0  0  0  0
  -13.2990  -10.3080   13.7090 C   0  0  0  0  0  0  0  0  0  0  0  0
  -12.3900  -10.1810   12.8870 O   0  0  0  0  0  0  0  0  0  0  0  0
  -15.2820   -8.7910   13.6380 C   0  0  0  0  0  0  0  0  0  0  0  0
  -15.0970   -8.1840   12.2910 C   0  0  0  0  0  0  0  0  0  0  0  0
  -14.9030   -8.9870   11.1620 C   0  0  0  0  0  0  0  0  0  0  0  0
  -15.1190   -6.8040   12.1350 C   0  0  0  0  0  0  0  0  0  0  0  0
  -14.7130   -8.4050    9.9040 C   0  0  0  0  0  0  0  0  0  0  0  0
  -14.9180   -6.2260   10.8890 C   0  0  0  0  0  0  0  0  0  0  0  0
  -14.7190   -7.0300    9.7750 C   0  0  0  0  0  0  0  0  0  0  0  0
  -13.7170  -11.5230   14.0900 N   0  0  0  0  0  0  0  0  0  0  0  0
  -13.1420  -12.7340   13.5380 C   0  0  2  0  0  0  0  0  0  0  0  0
  -13.7240  -13.0890   12.1630 C   0  0  0  0  0  0  0  0  0  0  0  0
  -14.7990  -12.6690   11.7840 O   0  0  0  0  0  0  0  0  0  0  0  0
  -13.4200  -13.7710   14.6160 C   0  0  0  0  0  0  0  0  0  0  0  0
  -14.7300  -13.3290   15.2050 C   0  0  0  0  0  0  0  0  0  0  0  0
  -14.6770  -11.8110   15.1630 C   0  0  0  0  0  0  0  0  0  0  0  0
  -12.9790  -13.9030   11.4340 N   0  0  0  0  0  0  0  0  0  0  0  0
  -13.3610  -14.3190   10.1160 C   0  0  2  0  0  0  0  0  0  0  0  0
  -14.4840  -15.3440   10.1500 C   0  0  0  0  0  0  0  0  0  0  0  0
  -14.4130  -16.3150   10.8960 O   0  0  0  0  0  0  0  0  0  0  0  0
  -12.1640  -14.9300    9.3980 C   0  0  0  0  0  0  0  0  0  0  0  0
  -15.4920  -15.1180    9.3040 N   0  0  0  0  0  0  0  0  0  0  0  0
  -16.5590  -16.0870    8.9950 C   0  0  1  0  0  0  0  0  0  0  0  0
  -17.8290  -15.7640    9.7830 C   0  0  1  0  0  0  0  0  0  0  0  0
  -17.6200  -15.9110   11.2710 C   0  0  0  0  0  0  0  0  0  0  0  0
  -18.1800  -14.3840    9.4540 O   0  0  0  0  0  0  0  0  0  0  0  0
  -19.6020  -13.7320    9.8390 P   0  0  0  0  0  0  0  0  0  0  0  0
  -19.6520  -12.5260    8.9490 O   0  0  0  0  0  0  0  0  0  0  0  0
  -19.5830  -13.3940   11.3220 O   0  0  0  0  0  0  0  0  0  0  0  0
  -20.6630  -14.7480    9.5600 O   0  0  0  0  0  0  0  0  0  0  0  0
  -16.7850  -16.0920    7.4890 C   0  0  0  0  0  0  0  0  0  0  0  0
  -16.4510  -15.1060    6.8330 O   0  0  0  0  0  0  0  0  0  0  0  0
  -17.3360  -17.1870    6.9820 N   0  0  0  0  0  0  0  0  0  0  0  0
  -17.6450  -17.3060    5.5830 C   0  0  2  0  0  0  0  0  0  0  0  0
  -19.0870  -17.5930    5.2940 C   0  0  0  0  0  0  0  0  0  0  0  0
  -19.8290  -17.9710    6.1990 O   0  0  0  0  0  0  0  0  0  0  0  0
  -16.7650  -18.3680    4.8800 C   0  0  0  0  0  0  0  0  0  0  0  0
  -15.3230  -17.9630    4.9720 C   0  0  0  0  0  0  0  0  0  0  0  0
  -17.0250  -19.7570    5.4060 C   0  0  0  0  0  0  0  0  0  0  0  0
  -19.4940  -17.4500    4.1130 O   0  0  0  0  0  0  0  0  0  0  0  0
  2  1  1  6
  3  2  1  0
  4  3  2  0
  5  2  1  0
  6  5  1  0
  7  6  2  0
  8  6  1  0
  9  7  1  0
 10  8  2  0
 11 10  1  0
 11  9  2  0
 12  3  1  0
 13 12  1  0
 13 14  1  6
 15 14  2  0
 16 13  1  0
 17 16  1  0
 18 17  1  0
 18 12  1  0
 19 14  1  0
 20 19  1  0
 21 20  1  0
 22 21  2  0
 20 23  1  1
 24 21  1  0
 25 24  1  6
 26 25  1  0
 26 27  1  1
 28 26  1  0
 29 28  1  0
 30 29  1  0
 31 29  1  0
 32 29  1  0
 33 25  1  0
 34 33  1  0
 35 33  1  0
 36 35  1  1
 37 36  1  0
 38 37  2  0
 39 36  1  0
 40 39  1  0
 41 39  1  0
 42 37  1  0
M  END
$$$$
8AS1
     RDKit          3D

 42 43  0  0  0  0  0  0  0  0999 V2000
   12.4070    8.1890   14.9280 N   0  0  0  0  0  0  0  0  0  0  0  0
   13.5270    9.1390   14.6230 C   0  0  2  0  0  0  0  0  0  0  0  0
   13.0490   10.3820   13.8780 C   0  0  0  0  0  0  0  0  0  0  0  0
   12.3480   10.2830   12.8740 O   0  0  0  0  0  0  0  0  0  0  0  0
   14.6150    8.4360   13.8120 C   0  0  0  0  0  0  0  0  0  0  0  0
   15.2980    7.3370   14.5700 C   0  0  0  0  0  0  0  0  0  0  0  0
   16.2080    7.6390   15.5800 C   0  0  0  0  0  0  0  0  0  0  0  0
   15.0210    5.9990   14.2920 C   0  0  0  0  0  0  0  0  0  0  0  0
   16.8440    6.6260   16.2860 C   0  0  0  0  0  0  0  0  0  0  0  0
   15.6550    4.9820   14.9950 C   0  0  0  0  0  0  0  0  0  0  0  0
   16.5670    5.2960   15.9920 C   0  0  0  0  0  0  0  0  0  0  0  0
   13.4430   11.5990   14.3130 N   0  0  0  0  0  0  0  0  0  0  0  0
   12.9180   12.8190   13.6990 C   0  0  2  0  0  0  0  0  0  0  0  0
   13.5040   13.1330   12.3130 C   0  0  0  0  0  0  0  0  0  0  0  0
   14.5450   12.6670   11.9380 O   0  0  0  0  0  0  0  0  0  0  0  0
   13.3070   13.8780   14.7290 C   0  0  0  0  0  0  0  0  0  0  0  0
   14.6090   13.3730   15.2820 C   0  0  0  0  0  0  0  0  0  0  0  0
   14.4210   11.8740   15.3760 C   0  0  0  0  0  0  0  0  0  0  0  0
   12.7830   13.9580   11.5490 N   0  0  0  0  0  0  0  0  0  0  0  0
   13.1960   14.3370   10.2430 C   0  0  2  0  0  0  0  0  0  0  0  0
   14.3120   15.3840   10.2600 C   0  0  0  0  0  0  0  0  0  0  0  0
   14.2290   16.3660   11.0030 O   0  0  0  0  0  0  0  0  0  0  0  0
   12.0260   14.9110    9.4580 C   0  0  0  0  0  0  0  0  0  0  0  0
   15.3100   15.1650    9.4160 N   0  0  0  0  0  0  0  0  0  0  0  0
   16.3800   16.1270    9.0940 C   0  0  1  0  0  0  0  0  0  0  0  0
   17.6730   15.8290    9.8680 C   0  0  1  0  0  0  0  0  0  0  0  0
   17.5170   15.9890   11.3640 C   0  0  0  0  0  0  0  0  0  0  0  0
   17.9960   14.4340    9.5310 O   0  0  0  0  0  0  0  0  0  0  0  0
   19.4310   13.7650    9.9290 P   0  0  0  0  0  0  0  0  0  0  0  0
   19.4850   12.5280    9.0030 O   0  0  0  0  0  0  0  0  0  0  0  0
   19.4010   13.3940   11.3800 O   0  0  0  0  0  0  0  0  0  0  0  0
   20.4430   14.7680    9.5660 O   0  0  0  0  0  0  0  0  0  0  0  0
   16.6180   16.1260    7.5940 C   0  0  0  0  0  0  0  0  0  0  0  0
   16.2680   15.1150    6.9130 O   0  0  0  0  0  0  0  0  0  0  0  0
   17.1790   17.2100    7.0910 N   0  0  0  0  0  0  0  0  0  0  0  0
   17.4980   17.3120    5.6920 C   0  0  2  0  0  0  0  0  0  0  0  0
   18.9290   17.5800    5.3990 C   0  0  0  0  0  0  0  0  0  0  0  0
   19.7340   18.0280    6.2430 O   0  0  0  0  0  0  0  0  0  0  0  0
   16.6260   18.3730    4.9800 C   0  0  0  0  0  0  0  0  0  0  0  0
   15.1840   17.9520    5.0680 C   0  0  0  0  0  0  0  0  0  0  0  0
   16.8960   19.7630    5.5510 C   0  0  0  0  0  0  0  0  0  0  0  0
   19.3430   17.3700    4.2360 O   0  0  0  0  0  0  0  0  0  0  0  0
  2  1  1  6
  3  2  1  0
  4  3  2  0
  5  2  1  0
  6  5  1  0
  7  6  2  0
  8  6  1  0
  9  7  1  0
 10  8  2  0
 11 10  1  0
 11  9  2  0
 12  3  1  0
 13 12  1  0
 13 14  1  6
 15 14  2  0
 16 13  1  0
 17 16  1  0
 18 17  1  0
 18 12  1  0
 19 14  1  0
 20 19  1  0
 21 20  1  0
 22 21  2  0
 20 23  1  6
 24 21  1  0
 25 24  1  6
 26 25  1  0
 26 27  1  1
 28 26  1  0
 29 28  1  0
 30 29  1  0
 31 29  1  0
 32 29  1  0
 33 25  1  0
 34 33  1  0
 35 33  1  0
 36 35  1  1
 37 36  1  0
 38 37  2  0
 39 36  1  0
 40 39  1  0
 41 39  1  0
 42 37  1  0
M  END
$$$$
9BQE
     RDKit          3D

 37 42  0  0  0  0  0  0  0  0999 V2000
   -2.0050  -31.1380   27.3690 N   0  0  0  0  0  0  0  0  0  0  0  0
   -1.8790  -26.8200   26.8480 C   0  0  0  0  0  0  0  0  0  0  0  0
   -1.9000  -28.3480   26.9080 C   0  0  0  0  0  0  0  0  0  0  0  0
   -3.0150  -29.0430   26.5890 C   0  0  0  0  0  0  0  0  0  0  0  0
   -0.5340  -29.1130   27.3750 C   0  0  0  0  0  0  0  0  0  0  0  0
   -0.6570  -30.6960   27.1920 C   0  0  2  0  0  0  0  0  0  0  0  0
   -2.4200  -32.2240   28.3220 C   0  0  1  0  0  0  0  0  0  0  0  0
    0.0220  -32.6630   31.3240 C   0  0  0  0  0  0  0  0  0  0  0  0
    0.0990  -34.7600   29.9750 C   0  0  0  0  0  0  0  0  0  0  0  0
   -3.1800  -31.1050   25.1610 C   0  0  0  0  0  0  0  0  0  0  0  0
   -3.4150  -32.0690   22.4920 C   0  0  0  0  0  0  0  0  0  0  0  0
   -4.1970  -32.7680   23.6210 C   0  0  0  0  0  0  0  0  0  0  0  0
   -4.0920  -32.3140   24.8710 C   0  0  0  0  0  0  0  0  0  0  0  0
    0.4240  -30.9530   26.0900 C   0  0  0  0  0  0  0  0  0  0  0  0
   -4.7490  -33.4660   19.2960 C   0  0  2  0  0  0  0  0  0  0  0  0
   -4.7700  -31.4510   18.1490 C   0  0  0  0  0  0  0  0  0  0  0  0
   -4.2650  -28.2770   26.1570 C   0  0  0  0  0  0  0  0  0  0  0  0
   -1.3750  -32.9100   29.2730 C   0  0  0  0  0  0  0  0  0  0  0  0
   -0.9990  -32.1480   30.3050 C   0  0  0  0  0  0  0  0  0  0  0  0
    0.5230  -33.8770   31.1620 C   0  0  0  0  0  0  0  0  0  0  0  0
   -0.7920  -34.3180   29.0820 C   0  0  0  0  0  0  0  0  0  0  0  0
   -2.5080  -30.4910   24.1800 C   0  0  0  0  0  0  0  0  0  0  0  0
   -2.6300  -31.0210   22.7380 C   0  0  0  0  0  0  0  0  0  0  0  0
   -4.2480  -26.9450   26.1070 C   0  0  0  0  0  0  0  0  0  0  0  0
    0.7140  -31.3980   27.4780 C   0  0  0  0  0  0  0  0  0  0  0  0
   -4.7630  -33.1980   20.8810 C   0  0  0  0  0  0  0  0  0  0  0  0
   -3.8300  -32.5330   18.7320 C   0  0  0  0  0  0  0  0  0  0  0  0
   -6.1110  -33.2140   18.7310 C   0  0  0  0  0  0  0  0  0  0  0  0
   -2.9700  -26.1640   26.4700 C   0  0  0  0  0  0  0  0  0  0  0  0
   -5.9400  -32.6200   16.7090 C   0  0  0  0  0  0  0  0  0  0  0  0
   -5.8340  -31.4590   15.6800 C   0  0  0  0  0  0  0  0  0  0  0  0
   -6.3570  -31.9390   14.3060 C   0  0  0  0  0  0  0  0  0  0  0  0
   -3.0790  -30.5630   26.6260 C   0  0  1  0  0  0  0  0  0  0  0  0
   -5.9850  -32.1720   17.8670 N   0  0  0  0  0  0  0  0  0  0  0  0
   -2.9520  -24.7580   26.4170 O   0  0  0  0  0  0  0  0  0  0  0  0
   -3.5720  -32.5090   28.3920 O   0  0  0  0  0  0  0  0  0  0  0  0
   -3.5250  -32.5600   21.1640 O   0  0  0  0  0  0  0  0  0  0  0  0
  3  2  1  0
  4  3  1  0
  5  3  1  0
  6  5  1  1
  6  1  1  0
  7  1  1  0
 12 11  1  0
 13 12  1  0
 13 10  1  0
 14  6  1  0
 17  4  1  0
 18  7  1  0
 19 18  1  0
 19  8  1  0
 20  9  1  0
 20  8  1  0
 21 18  1  0
 21  9  1  0
 22 10  1  0
 23 22  1  0
 23 11  1  0
 24 17  1  0
 25 14  1  0
 25  6  1  0
 15 26  1  1
 27 15  1  0
 27 16  1  0
 28 15  1  0
 29 24  1  0
 29  2  1  0
 31 30  1  0
 32 31  1  0
 33 10  1  6
 33  4  1  0
 33  1  1  0
 34 28  1  0
 34 30  1  0
 34 16  1  0
 35 29  1  0
  7 36  1  1
 37 26  1  0
 37 11  1  0
M  END
$$$$
9I6W
     RDKit          3D

 42 43  0  0  0  0  0  0  0  0999 V2000
  -12.7630    8.1310  -14.9570 N   0  0  0  0  0  0  0  0  0  0  0  0
  -13.7210    9.2330  -14.8490 C   0  0  2  0  0  0  0  0  0  0  0  0
  -13.0910   10.4600  -14.1940 C   0  0  0  0  0  0  0  0  0  0  0  0
  -12.2230   10.3420  -13.3230 O   0  0  0  0  0  0  0  0  0  0  0  0
  -14.9760    8.7770  -14.0670 C   0  0  0  0  0  0  0  0  0  0  0  0
  -15.8310    7.8120  -14.8470 C   0  0  0  0  0  0  0  0  0  0  0  0
  -16.5870    8.2460  -15.9260 C   0  0  0  0  0  0  0  0  0  0  0  0
  -15.8520    6.4620  -14.5270 C   0  0  0  0  0  0  0  0  0  0  0  0
  -17.3700    7.3530  -16.6490 C   0  0  0  0  0  0  0  0  0  0  0  0
  -16.6490    5.5710  -15.2460 C   0  0  0  0  0  0  0  0  0  0  0  0
  -17.3900    6.0200  -16.3120 C   0  0  0  0  0  0  0  0  0  0  0  0
  -13.4770   11.6860  -14.5990 N   0  0  0  0  0  0  0  0  0  0  0  0
  -12.9080   12.8810  -13.9870 C   0  0  2  0  0  0  0  0  0  0  0  0
  -13.4790   13.1810  -12.6020 C   0  0  0  0  0  0  0  0  0  0  0  0
  -14.5390   12.6830  -12.2360 O   0  0  0  0  0  0  0  0  0  0  0  0
  -13.2780   13.9670  -14.9640 C   0  0  0  0  0  0  0  0  0  0  0  0
  -14.5890   13.4930  -15.5520 C   0  0  0  0  0  0  0  0  0  0  0  0
  -14.4750   11.9930  -15.6430 C   0  0  0  0  0  0  0  0  0  0  0  0
  -12.7800   14.0300  -11.8560 N   0  0  0  0  0  0  0  0  0  0  0  0
  -13.1680   14.3770  -10.5040 C   0  0  2  0  0  0  0  0  0  0  0  0
  -14.2930   15.4100  -10.4930 C   0  0  0  0  0  0  0  0  0  0  0  0
  -14.2340   16.4200  -11.1910 O   0  0  0  0  0  0  0  0  0  0  0  0
  -11.9520   14.9200   -9.7460 C   0  0  0  0  0  0  0  0  0  0  0  0
  -15.2870   15.1490   -9.6200 N   0  0  0  0  0  0  0  0  0  0  0  0
  -16.3330   16.0980   -9.2680 C   0  0  1  0  0  0  0  0  0  0  0  0
  -17.6530   15.7880   -9.9990 C   0  0  1  0  0  0  0  0  0  0  0  0
  -17.5240   15.9510  -11.5090 C   0  0  0  0  0  0  0  0  0  0  0  0
  -17.9820   14.3890   -9.6610 O   0  0  0  0  0  0  0  0  0  0  0  0
  -19.4310   13.7580  -10.0150 P   0  0  0  0  0  0  0  0  0  0  0  0
  -19.4690   13.3880  -11.5020 O   0  0  0  0  0  0  0  0  0  0  0  0
  -19.4830   12.5410   -9.1320 O   0  0  0  0  0  0  0  0  0  0  0  0
  -20.4720   14.8030   -9.7000 O   0  0  0  0  0  0  0  0  0  0  0  0
  -16.5230   16.0840   -7.7550 C   0  0  0  0  0  0  0  0  0  0  0  0
  -16.1430   15.1150   -7.0990 O   0  0  0  0  0  0  0  0  0  0  0  0
  -17.1100   17.1660   -7.2420 N   0  0  0  0  0  0  0  0  0  0  0  0
  -17.4070   17.2350   -5.8180 C   0  0  2  0  0  0  0  0  0  0  0  0
  -18.8510   17.4760   -5.5050 C   0  0  0  0  0  0  0  0  0  0  0  0
  -19.6350   17.9320   -6.3710 O   0  0  0  0  0  0  0  0  0  0  0  0
  -16.5540   18.3040   -5.1080 C   0  0  0  0  0  0  0  0  0  0  0  0
  -15.0810   17.9600   -5.2060 C   0  0  0  0  0  0  0  0  0  0  0  0
  -16.8510   19.7000   -5.6610 C   0  0  0  0  0  0  0  0  0  0  0  0
  -19.2410   17.2410   -4.3580 O   0  0  0  0  0  0  0  0  0  0  0  0
  2  1  1  1
  3  2  1  0
  4  3  2  0
  5  2  1  0
  6  5  1  0
  7  6  2  0
  8  6  1  0
  9  7  1  0
 10  8  2  0
 11  9  2  0
 11 10  1  0
 12  3  1  0
 13 12  1  0
 13 14  1  1
 15 14  2  0
 16 13  1  0
 17 16  1  0
 18 17  1  0
 18 12  1  0
 19 14  1  0
 20 19  1  0
 21 20  1  0
 22 21  2  0
 20 23  1  1
 24 21  1  0
 25 24  1  1
 26 25  1  0
 26 27  1  6
 28 26  1  0
 29 28  1  0
 30 29  1  0
 31 29  1  0
 32 29  1  0
 33 25  1  0
 34 33  1  0
 35 33  1  0
 36 35  1  6
 37 36  1  0
 38 37  2  0
 39 36  1  0
 40 39  1  0
 41 39  1  0
 42 37  1  0
M  END
$$$$
4PP6
     RDKit          3D

 79 79  0  0  0  0  0  0  0  0999 V2000
   28.4520   38.9040    6.2520 N   0  0  0  0  0  0  0  0  0  0  0  0
   28.0950   37.4850    6.1810 C   0  0  2  0  0  0  0  0  0  0  0  0
   27.8180   37.0690    4.7360 C   0  0  0  0  0  0  0  0  0  0  0  0
   27.1140   37.7750    3.9960 O   0  0  0  0  0  0  0  0  0  0  0  0
   26.8780   37.1660    7.0630 C   0  0  0  0  0  0  0  0  0  0  0  0
   27.0720   37.4690    8.5690 C   0  0  0  0  0  0  0  0  0  0  0  0
   26.8720   36.2200    9.4350 C   0  0  0  0  0  0  0  0  0  0  0  0
   25.9730   36.5030   10.6280 C   0  0  0  0  0  0  0  0  0  0  0  0
   24.6520   37.0390   10.2030 N   0  0  0  0  0  0  0  0  0  0  0  0
   28.3720   35.9170    4.3520 N   0  0  0  0  0  0  0  0  0  0  0  0
   28.2100   35.3630    3.0090 C   0  0  2  0  0  0  0  0  0  0  0  0
   26.7400   35.2310    2.6050 C   0  0  0  0  0  0  0  0  0  0  0  0
   26.3640   35.5980    1.4940 O   0  0  0  0  0  0  0  0  0  0  0  0
   28.9100   33.9920    2.8980 C   0  0  2  0  0  0  0  0  0  0  0  0
   30.4250   34.1580    3.0760 C   0  0  0  0  0  0  0  0  0  0  0  0
   28.5640   33.3060    1.5760 C   0  0  0  0  0  0  0  0  0  0  0  0
   31.1720   32.8710    3.3900 C   0  0  0  0  0  0  0  0  0  0  0  0
   25.9150   34.7040    3.5080 N   0  0  0  0  0  0  0  0  0  0  0  0
   24.4850   34.5520    3.2520 C   0  0  2  0  0  0  0  0  0  0  0  0
   23.8240   35.8900    2.9120 C   0  0  0  0  0  0  0  0  0  0  0  0
   23.0070   35.9640    1.9900 O   0  0  0  0  0  0  0  0  0  0  0  0
   23.7970   33.9010    4.4600 C   0  0  0  0  0  0  0  0  0  0  0  0
   22.2770   33.7770    4.4530 C   0  0  0  0  0  0  0  0  0  0  0  0
   21.8030   32.9010    3.3060 C   0  0  0  0  0  0  0  0  0  0  0  0
   21.7880   33.2360    5.7880 C   0  0  0  0  0  0  0  0  0  0  0  0
   24.1850   36.9370    3.6540 N   0  0  0  0  0  0  0  0  0  0  0  0
   23.6460   38.2890    3.4280 C   0  0  2  0  0  0  0  0  0  0  0  0
   23.9660   38.7610    2.0060 C   0  0  0  0  0  0  0  0  0  0  0  0
   23.0950   39.2870    1.3100 O   0  0  0  0  0  0  0  0  0  0  0  0
   24.1800   39.2700    4.4850 C   0  0  0  0  0  0  0  0  0  0  0  0
   23.6950   40.6810    4.3220 C   0  0  0  0  0  0  0  0  0  0  0  0
   24.3740   41.6220    3.5770 N   0  0  0  0  0  0  0  0  0  0  0  0
   22.6100   41.3200    4.8280 C   0  0  0  0  0  0  0  0  0  0  0  0
   23.7230   42.7740    3.6160 C   0  0  0  0  0  0  0  0  0  0  0  0
   22.6480   42.6160    4.3720 N   0  0  0  0  0  0  0  0  0  0  0  0
   25.2030   38.5280    1.5650 N   0  0  0  0  0  0  0  0  0  0  0  0
   25.5970   38.8270    0.1790 C   0  0  2  0  0  0  0  0  0  0  0  0
   24.9250   37.8860   -0.8100 C   0  0  0  0  0  0  0  0  0  0  0  0
   24.5280   38.3010   -1.8940 O   0  0  0  0  0  0  0  0  0  0  0  0
   27.1270   38.7510   -0.0030 C   0  0  0  0  0  0  0  0  0  0  0  0
   27.5970   38.8180   -1.4800 C   0  0  0  0  0  0  0  0  0  0  0  0
   27.5380   40.2530   -2.0450 C   0  0  0  0  0  0  0  0  0  0  0  0
   28.0890   40.3940   -3.3970 N   0  0  0  0  0  0  0  0  0  0  0  0
   29.3530   40.7360   -3.6810 C   0  0  0  0  0  0  0  0  0  0  0  0
   30.2260   40.9680   -2.7100 N   0  0  0  0  0  0  0  0  0  0  0  0
   29.7520   40.8440   -4.9440 N   0  0  0  0  0  0  0  0  0  0  0  0
   24.8220   36.6090   -0.4410 N   0  0  0  0  0  0  0  0  0  0  0  0
   24.2090   35.6050   -1.3060 C   0  0  2  0  0  0  0  0  0  0  0  0
   22.7310   35.8990   -1.5180 C   0  0  0  0  0  0  0  0  0  0  0  0
   22.2020   35.6870   -2.6020 O   0  0  0  0  0  0  0  0  0  0  0  0
   24.3780   34.2060   -0.7010 C   0  0  0  0  0  0  0  0  0  0  0  0
   25.2500   33.1780   -1.4230 C   0  0  0  0  0  0  0  0  0  0  0  0
   26.5780   33.8040   -1.8470 C   0  0  0  0  0  0  0  0  0  0  0  0
   25.4860   31.9550   -0.5390 C   0  0  0  0  0  0  0  0  0  0  0  0
   22.0550   36.3860   -0.4790 N   0  0  0  0  0  0  0  0  0  0  0  0
   20.6270   36.7090   -0.5890 C   0  0  2  0  0  0  0  0  0  0  0  0
   20.3270   37.8760   -1.5470 C   0  0  0  0  0  0  0  0  0  0  0  0
   19.1950   38.0480   -1.9990 O   0  0  0  0  0  0  0  0  0  0  0  0
   20.0480   36.9890    0.7950 C   0  0  0  0  0  0  0  0  0  0  0  0
   19.7720   35.7430    1.6380 C   0  0  0  0  0  0  0  0  0  0  0  0
   19.7730   36.0700    3.1270 C   0  0  0  0  0  0  0  0  0  0  0  0
   18.4500   35.1290    1.2040 C   0  0  0  0  0  0  0  0  0  0  0  0
   21.3330   38.6770   -1.8690 N   0  0  0  0  0  0  0  0  0  0  0  0
   21.1060   39.7950   -2.7900 C   0  0  2  0  0  0  0  0  0  0  0  0
   21.2960   39.3970   -4.2570 C   0  0  0  0  0  0  0  0  0  0  0  0
   20.4480   39.6850   -5.1050 O   0  0  0  0  0  0  0  0  0  0  0  0
   21.9950   40.9880   -2.4200 C   0  0  0  0  0  0  0  0  0  0  0  0
   21.9350   41.3230   -0.9350 C   0  0  0  0  0  0  0  0  0  0  0  0
   22.8150   42.4910   -0.5590 C   0  0  0  0  0  0  0  0  0  0  0  0
   22.7790   43.5390   -1.1980 O   0  0  0  0  0  0  0  0  0  0  0  0
   23.6130   42.3180    0.4860 N   0  0  0  0  0  0  0  0  0  0  0  0
   22.4070   38.7250   -4.5450 N   0  0  0  0  0  0  0  0  0  0  0  0
   22.7430   38.3270   -5.9110 C   0  0  2  0  0  0  0  0  0  0  0  0
   21.6030   37.5960   -6.6250 C   0  0  0  0  0  0  0  0  0  0  0  0
   20.8930   38.1830   -7.4450 O   0  0  0  0  0  0  0  0  0  0  0  0
   24.0180   37.4760   -5.9130 C   0  0  0  0  0  0  0  0  0  0  0  0
   25.2510   38.2760   -5.5170 C   0  0  0  0  0  0  0  0  0  0  0  0
   26.3690   37.9070   -5.9390 O   0  0  0  0  0  0  0  0  0  0  0  0
   25.1000   39.2820   -4.7910 O   0  0  0  0  0  0  0  0  0  0  0  0
  2  1  1  6
  3  2  1  0
  4  3  2  0
  5  2  1  0
  6  5  1  0
  7  6  1  0
  8  7  1  0
  9  8  1  0
 10  3  1  0
 11 10  1  1
 12 11  1  0
 13 12  2  0
 14 11  1  0
 15 14  1  0
 14 16  1  6
 17 15  1  0
 18 12  1  0
 19 18  1  0
 20 19  1  0
 21 20  2  0
 19 22  1  1
 23 22  1  0
 24 23  1  0
 25 23  1  0
 26 20  1  0
 27 26  1  0
 28 27  1  0
 29 28  2  0
 27 30  1  1
 31 30  1  0
 32 31  1  0
 33 31  2  0
 34 32  2  0
 35 34  1  0
 35 33  1  0
 36 28  1  0
 37 36  1  0
 38 37  1  0
 39 38  2  0
 37 40  1  1
 41 40  1  0
 42 41  1  0
 43 42  1  0
 44 43  1  0
 45 44  1  0
 46 44  2  0
 47 38  1  0
 48 47  1  0
 49 48  1  0
 50 49  2  0
 48 51  1  1
 52 51  1  0
 53 52  1  0
 54 52  1  0
 55 49  1  0
 56 55  1  0
 57 56  1  0
 58 57  2  0
 56 59  1  1
 60 59  1  0
 61 60  1  0
 62 60  1  0
 63 57  1  0
 64 63  1  0
 65 64  1  0
 66 65  2  0
 64 67  1  1
 68 67  1  0
 69 68  1  0
 70 69  2  0
 71 69  1  0
 72 65  1  0
 73 72  1  0
 74 73  1  0
 75 74  2  0
 73 76  1  1
 77 76  1  0
 78 77  2  0
 79 77  1  0
M  END
$$$$
9I72
     RDKit          3D

 42 43  0  0  0  0  0  0  0  0999 V2000
  -12.6810   -7.9920   14.7740 N   0  0  0  0  0  0  0  0  0  0  0  0
  -13.6110   -9.1180   14.7500 C   0  0  2  0  0  0  0  0  0  0  0  0
  -12.9780  -10.3360   14.0800 C   0  0  0  0  0  0  0  0  0  0  0  0
  -12.1060  -10.1970   13.2240 O   0  0  0  0  0  0  0  0  0  0  0  0
  -14.9000   -8.6990   14.0430 C   0  0  0  0  0  0  0  0  0  0  0  0
  -15.7000   -7.7130   14.8640 C   0  0  0  0  0  0  0  0  0  0  0  0
  -16.4060   -8.1300   15.9860 C   0  0  0  0  0  0  0  0  0  0  0  0
  -15.7130   -6.3640   14.5410 C   0  0  0  0  0  0  0  0  0  0  0  0
  -17.1350   -7.2180   16.7450 C   0  0  0  0  0  0  0  0  0  0  0  0
  -16.4460   -5.4540   15.3050 C   0  0  0  0  0  0  0  0  0  0  0  0
  -17.1450   -5.8860   16.4030 C   0  0  0  0  0  0  0  0  0  0  0  0
  -13.3780  -11.5690   14.4640 N   0  0  0  0  0  0  0  0  0  0  0  0
  -12.8250  -12.7680   13.8490 C   0  0  2  0  0  0  0  0  0  0  0  0
  -13.4270  -13.0880   12.4820 C   0  0  0  0  0  0  0  0  0  0  0  0
  -14.5020  -12.6100   12.1220 O   0  0  0  0  0  0  0  0  0  0  0  0
  -13.1690  -13.8470   14.8540 C   0  0  0  0  0  0  0  0  0  0  0  0
  -14.4930  -13.3620   15.4440 C   0  0  0  0  0  0  0  0  0  0  0  0
  -14.3720  -11.8670   15.5130 C   0  0  0  0  0  0  0  0  0  0  0  0
  -12.7190  -13.9350   11.7390 N   0  0  0  0  0  0  0  0  0  0  0  0
  -13.1140  -14.3000   10.3950 C   0  0  2  0  0  0  0  0  0  0  0  0
  -14.2300  -15.3370   10.3780 C   0  0  0  0  0  0  0  0  0  0  0  0
  -14.1690  -16.3200   11.1090 O   0  0  0  0  0  0  0  0  0  0  0  0
  -11.9210  -14.8520    9.6460 C   0  0  0  0  0  0  0  0  0  0  0  0
  -15.2360  -15.0890    9.5300 N   0  0  0  0  0  0  0  0  0  0  0  0
  -16.2810  -16.0500    9.2060 C   0  0  1  0  0  0  0  0  0  0  0  0
  -17.5900  -15.7420    9.9560 C   0  0  1  0  0  0  0  0  0  0  0  0
  -17.4330  -15.8840   11.4590 C   0  0  0  0  0  0  0  0  0  0  0  0
  -17.9330  -14.3610    9.6040 O   0  0  0  0  0  0  0  0  0  0  0  0
  -19.3420  -13.6910    9.9870 P   0  0  0  0  0  0  0  0  0  0  0  0
  -19.3360  -13.3300   11.4560 O   0  0  0  0  0  0  0  0  0  0  0  0
  -19.3890  -12.4690    9.0900 O   0  0  0  0  0  0  0  0  0  0  0  0
  -20.3900  -14.7350    9.6570 O   0  0  0  0  0  0  0  0  0  0  0  0
  -16.4980  -16.0260    7.6980 C   0  0  0  0  0  0  0  0  0  0  0  0
  -16.1190  -15.0590    7.0450 O   0  0  0  0  0  0  0  0  0  0  0  0
  -17.0890  -17.1000    7.1740 N   0  0  0  0  0  0  0  0  0  0  0  0
  -17.3910  -17.1780    5.7550 C   0  0  2  0  0  0  0  0  0  0  0  0
  -18.8210  -17.4810    5.4750 C   0  0  0  0  0  0  0  0  0  0  0  0
  -19.5850  -17.8570    6.3740 O   0  0  0  0  0  0  0  0  0  0  0  0
  -16.4900  -18.2150    5.0520 C   0  0  0  0  0  0  0  0  0  0  0  0
  -15.0360  -17.8260    5.1820 C   0  0  0  0  0  0  0  0  0  0  0  0
  -16.7290  -19.6300    5.5720 C   0  0  0  0  0  0  0  0  0  0  0  0
  -19.2260  -17.3410    4.3070 O   0  0  0  0  0  0  0  0  0  0  0  0
  2  1  1  6
  3  2  1  0
  4  3  2  0
  5  2  1  0
  6  5  1  0
  7  6  2  0
  8  6  1  0
  9  7  1  0
 10  8  2  0
 11 10  1  0
 11  9  2  0
 12  3  1  0
 13 12  1  0
 13 14  1  6
 15 14  2  0
 16 13  1  0
 17 16  1  0
 18 17  1  0
 18 12  1  0
 19 14  1  0
 20 19  1  0
 21 20  1  0
 22 21  2  0
 20 23  1  6
 24 21  1  0
 25 24  1  6
 26 25  1  0
 26 27  1  1
 28 26  1  0
 29 28  1  0
 30 29  1  0
 31 29  1  0
 32 29  1  0
 33 25  1  0
 34 33  1  0
 35 33  1  0
 36 35  1  1
 37 36  1  0
 38 37  2  0
 39 36  1  0
 40 39  1  0
 41 39  1  0
 42 37  1  0
M  END
$$$$
4MG9
     RDKit          3D

 76 76  0  0  0  0  0  0  0  0999 V2000
    0.0650  -25.9690   21.0890 N   0  0  0  0  0  0  0  0  0  0  0  0
    0.0140  -24.5100   21.1720 C   0  0  2  0  0  0  0  0  0  0  0  0
    0.8760  -23.8590   20.1010 C   0  0  0  0  0  0  0  0  0  0  0  0
    2.0380  -24.2190   19.9360 O   0  0  0  0  0  0  0  0  0  0  0  0
    0.4770  -24.0280   22.5520 C   0  0  0  0  0  0  0  0  0  0  0  0
   -0.6270  -23.9060   23.5890 C   0  0  0  0  0  0  0  0  0  0  0  0
   -0.0370  -23.5880   24.9620 C   0  0  0  0  0  0  0  0  0  0  0  0
   -1.0820  -23.7110   26.0570 C   0  0  0  0  0  0  0  0  0  0  0  0
   -0.5150  -23.4350   27.3990 N   0  0  0  0  0  0  0  0  0  0  0  0
    0.3050  -22.8930   19.3870 N   0  0  0  0  0  0  0  0  0  0  0  0
    1.0670  -22.1040   18.4280 C   0  0  2  0  0  0  0  0  0  0  0  0
    2.2760  -21.4930   19.1150 C   0  0  0  0  0  0  0  0  0  0  0  0
    3.4020  -21.6010   18.6320 O   0  0  0  0  0  0  0  0  0  0  0  0
    0.2210  -20.9710   17.8300 C   0  0  2  0  0  0  0  0  0  0  0  0
   -1.0790  -21.5370   17.2510 C   0  0  0  0  0  0  0  0  0  0  0  0
    1.0280  -20.1980   16.7880 C   0  0  0  0  0  0  0  0  0  0  0  0
   -1.9140  -20.5230   16.5000 C   0  0  0  0  0  0  0  0  0  0  0  0
    2.0350  -20.8520   20.2560 N   0  0  0  0  0  0  0  0  0  0  0  0
    3.1120  -20.2450   21.0240 C   0  0  2  0  0  0  0  0  0  0  0  0
    4.2230  -21.2530   21.3510 C   0  0  0  0  0  0  0  0  0  0  0  0
    5.4070  -20.9590   21.2320 O   0  0  0  0  0  0  0  0  0  0  0  0
    2.5480  -19.6270   22.3050 C   0  0  0  0  0  0  0  0  0  0  0  0
    3.5920  -19.1160   23.2870 C   0  0  0  0  0  0  0  0  0  0  0  0
    4.4390  -18.0310   22.6500 C   0  0  0  0  0  0  0  0  0  0  0  0
    2.9140  -18.6100   24.5550 C   0  0  0  0  0  0  0  0  0  0  0  0
    3.8400  -22.4530   21.7660 N   0  0  0  0  0  0  0  0  0  0  0  0
    4.8340  -23.4620   22.1160 C   0  0  2  0  0  0  0  0  0  0  0  0
    5.6880  -23.7910   20.8840 C   0  0  0  0  0  0  0  0  0  0  0  0
    6.9170  -23.9070   20.9550 O   0  0  0  0  0  0  0  0  0  0  0  0
    4.1280  -24.7050   22.6590 C   0  0  0  0  0  0  0  0  0  0  0  0
    5.0560  -25.8000   23.0730 C   0  0  0  0  0  0  0  0  0  0  0  0
    5.3610  -26.8640   22.2510 N   0  0  0  0  0  0  0  0  0  0  0  0
    5.7320  -26.0080   24.2260 C   0  0  0  0  0  0  0  0  0  0  0  0
    6.1940  -27.6750   22.8780 C   0  0  0  0  0  0  0  0  0  0  0  0
    6.4340  -27.1780   24.0790 N   0  0  0  0  0  0  0  0  0  0  0  0
    5.0220  -23.9000   19.7440 N   0  0  0  0  0  0  0  0  0  0  0  0
    5.6950  -24.1770   18.4820 C   0  0  2  0  0  0  0  0  0  0  0  0
    6.6880  -23.0720   18.1430 C   0  0  0  0  0  0  0  0  0  0  0  0
    7.8860  -23.3250   17.9810 O   0  0  0  0  0  0  0  0  0  0  0  0
    4.6610  -24.3040   17.3620 C   0  0  0  0  0  0  0  0  0  0  0  0
    5.2070  -24.8290   16.0470 C   0  0  0  0  0  0  0  0  0  0  0  0
    4.0880  -25.0300   15.0230 C   0  0  0  0  0  0  0  0  0  0  0  0
    3.5690  -23.7800   14.4630 N   0  0  0  0  0  0  0  0  0  0  0  0
    4.3160  -22.8780   13.8310 C   0  0  0  0  0  0  0  0  0  0  0  0
    5.6230  -23.0700   13.6950 N   0  0  0  0  0  0  0  0  0  0  0  0
    3.7640  -21.7740   13.3470 N   0  0  0  0  0  0  0  0  0  0  0  0
    6.1750  -21.8470   18.0430 N   0  0  0  0  0  0  0  0  0  0  0  0
    6.9830  -20.6930   17.6650 C   0  0  2  0  0  0  0  0  0  0  0  0
    8.1930  -20.5150   18.5720 C   0  0  0  0  0  0  0  0  0  0  0  0
    9.2330  -20.0260   18.1380 O   0  0  0  0  0  0  0  0  0  0  0  0
    6.1260  -19.4240   17.6420 C   0  0  0  0  0  0  0  0  0  0  0  0
    5.0730  -19.4290   16.5410 C   0  0  0  0  0  0  0  0  0  0  0  0
    4.2390  -18.1700   16.5500 C   0  0  0  0  0  0  0  0  0  0  0  0
    5.7510  -19.6190   15.1850 C   0  0  0  0  0  0  0  0  0  0  0  0
    8.0550  -20.9190   19.8290 N   0  0  0  0  0  0  0  0  0  0  0  0
    9.1610  -20.8630   20.7810 C   0  0  2  0  0  0  0  0  0  0  0  0
   10.2600  -21.8760   20.4650 C   0  0  0  0  0  0  0  0  0  0  0  0
   11.4160  -21.6840   20.8600 O   0  0  0  0  0  0  0  0  0  0  0  0
    8.6540  -21.0650   22.2080 C   0  0  0  0  0  0  0  0  0  0  0  0
    8.1540  -19.8040   22.9110 C   0  0  0  0  0  0  0  0  0  0  0  0
    7.4470  -20.1420   24.2170 C   0  0  0  0  0  0  0  0  0  0  0  0
    9.3200  -18.8650   23.1530 C   0  0  0  0  0  0  0  0  0  0  0  0
    9.8960  -22.9570   19.7720 N   0  0  0  0  0  0  0  0  0  0  0  0
   10.8780  -23.9390   19.3040 C   0  0  2  0  0  0  0  0  0  0  0  0
   11.4940  -23.5380   17.9600 C   0  0  0  0  0  0  0  0  0  0  0  0
   12.7140  -23.5450   17.8030 O   0  0  0  0  0  0  0  0  0  0  0  0
   10.2550  -25.3340   19.2100 C   0  0  0  0  0  0  0  0  0  0  0  0
   10.1750  -26.0650   20.5400 C   0  0  0  0  0  0  0  0  0  0  0  0
    9.6320  -27.4780   20.4070 C   0  0  0  0  0  0  0  0  0  0  0  0
    8.8220  -27.7720   19.5220 O   0  0  0  0  0  0  0  0  0  0  0  0
   10.0800  -28.3630   21.2900 N   0  0  0  0  0  0  0  0  0  0  0  0
   10.6470  -23.1900   16.9970 N   0  0  0  0  0  0  0  0  0  0  0  0
   11.1160  -22.7260   15.6930 C   0  0  2  0  0  0  0  0  0  0  0  0
   11.6370  -21.2960   15.7900 C   0  0  0  0  0  0  0  0  0  0  0  0
   12.1860  -20.7590   14.8280 O   0  0  0  0  0  0  0  0  0  0  0  0
    9.9990  -22.8060   14.6460 C   0  0  0  0  0  0  0  0  0  0  0  0
  2  1  1  1
  3  2  1  0
  4  3  2  0
  5  2  1  0
  6  5  1  0
  7  6  1  0
  8  7  1  0
  9  8  1  0
 10  3  1  0
 11 10  1  1
 12 11  1  0
 13 12  2  0
 14 11  1  0
 15 14  1  0
 14 16  1  6
 17 15  1  0
 18 12  1  0
 19 18  1  0
 20 19  1  0
 21 20  2  0
 19 22  1  1
 23 22  1  0
 24 23  1  0
 25 23  1  0
 26 20  1  0
 27 26  1  0
 28 27  1  0
 29 28  2  0
 27 30  1  6
 31 30  1  0
 32 31  1  0
 33 31  2  0
 34 32  2  0
 35 34  1  0
 35 33  1  0
 36 28  1  0
 37 36  1  0
 38 37  1  0
 39 38  2  0
 37 40  1  6
 41 40  1  0
 42 41  1  0
 43 42  1  0
 44 43  1  0
 45 44  1  0
 46 44  2  0
 47 38  1  0
 48 47  1  0
 49 48  1  0
 50 49  2  0
 48 51  1  1
 52 51  1  0
 53 52  1  0
 54 52  1  0
 55 49  1  0
 56 55  1  0
 57 56  1  0
 58 57  2  0
 56 59  1  1
 60 59  1  0
 61 60  1  0
 62 60  1  0
 63 57  1  0
 64 63  1  0
 65 64  1  0
 66 65  2  0
 64 67  1  6
 68 67  1  0
 69 68  1  0
 70 69  2  0
 71 69  1  0
 72 65  1  0
 73 72  1  0
 74 73  1  0
 75 74  2  0
 73 76  1  6
M  END
$$$$
8BWZ
     RDKit          3D

 76 77  0  0  0  0  0  0  0  0999 V2000
  -12.8560   -7.9960   14.5520 N   0  0  0  0  0  0  0  0  0  0  0  0
  -13.7180   -9.1750   14.6470 C   0  0  2  0  0  0  0  0  0  0  0  0
  -12.9930  -10.3940   14.0790 C   0  0  0  0  0  0  0  0  0  0  0  0
  -12.0830  -10.2590   13.2630 O   0  0  0  0  0  0  0  0  0  0  0  0
  -15.0460   -8.9440   13.9100 C   0  0  0  0  0  0  0  0  0  0  0  0
  -14.9030   -8.2840   12.5680 C   0  0  0  0  0  0  0  0  0  0  0  0
  -14.5810   -9.0260   11.4400 C   0  0  0  0  0  0  0  0  0  0  0  0
  -15.0990   -6.9170   12.4300 C   0  0  0  0  0  0  0  0  0  0  0  0
  -14.4470   -8.4130   10.1990 C   0  0  0  0  0  0  0  0  0  0  0  0
  -14.9590   -6.2960   11.1930 C   0  0  0  0  0  0  0  0  0  0  0  0
  -14.6430   -7.0440   10.0760 C   0  0  0  0  0  0  0  0  0  0  0  0
  -13.9350   -9.3480   15.5770 H   0  0  0  0  0  0  0  0  0  0  0  0
  -15.4770   -9.8030   13.7710 H   0  0  0  0  0  0  0  0  0  0  0  0
  -15.6100   -8.3760   14.4580 H   0  0  0  0  0  0  0  0  0  0  0  0
  -14.4530   -9.9440   11.5160 H   0  0  0  0  0  0  0  0  0  0  0  0
  -15.3260   -6.4090   13.1750 H   0  0  0  0  0  0  0  0  0  0  0  0
  -14.2260   -8.9200    9.4520 H   0  0  0  0  0  0  0  0  0  0  0  0
  -15.0780   -5.3770   11.1180 H   0  0  0  0  0  0  0  0  0  0  0  0
  -14.5620   -6.6330    9.2460 H   0  0  0  0  0  0  0  0  0  0  0  0
  -13.3920  -11.5870   14.5020 N   0  0  0  0  0  0  0  0  0  0  0  0
  -12.8100  -12.8000   13.9220 C   0  0  2  0  0  0  0  0  0  0  0  0
  -13.4170  -13.1160   12.5650 C   0  0  0  0  0  0  0  0  0  0  0  0
  -14.4890  -12.6240   12.1890 O   0  0  0  0  0  0  0  0  0  0  0  0
  -13.1580  -13.8770   14.9500 C   0  0  0  0  0  0  0  0  0  0  0  0
  -14.4600  -13.3990   15.5490 C   0  0  0  0  0  0  0  0  0  0  0  0
  -14.3490  -11.8900   15.5910 C   0  0  0  0  0  0  0  0  0  0  0  0
  -11.8460  -12.7280   13.8400 H   0  0  0  0  0  0  0  0  0  0  0  0
  -13.2680  -14.7350   14.5110 H   0  0  0  0  0  0  0  0  0  0  0  0
  -12.4630  -13.9350   15.6230 H   0  0  0  0  0  0  0  0  0  0  0  0
  -15.2020  -13.6760   14.9890 H   0  0  0  0  0  0  0  0  0  0  0  0
  -14.5650  -13.7630   16.4420 H   0  0  0  0  0  0  0  0  0  0  0  0
  -15.2090  -11.4750   15.4190 H   0  0  0  0  0  0  0  0  0  0  0  0
  -14.0020  -11.5930   16.4470 H   0  0  0  0  0  0  0  0  0  0  0  0
  -12.6970  -13.9450   11.8160 N   0  0  0  0  0  0  0  0  0  0  0  0
  -13.0860  -14.3000   10.4810 C   0  0  2  0  0  0  0  0  0  0  0  0
  -14.2020  -15.3450   10.4390 C   0  0  0  0  0  0  0  0  0  0  0  0
  -14.1450  -16.3250   11.1760 O   0  0  0  0  0  0  0  0  0  0  0  0
  -11.8740  -14.8360    9.7120 C   0  0  0  0  0  0  0  0  0  0  0  0
  -11.9670  -14.3180   12.0740 H   0  0  0  0  0  0  0  0  0  0  0  0
  -13.4250  -13.4970   10.0560 H   0  0  0  0  0  0  0  0  0  0  0  0
  -12.1520  -15.0820    8.8160 H   0  0  0  0  0  0  0  0  0  0  0  0
  -11.1960  -14.1440    9.6690 H   0  0  0  0  0  0  0  0  0  0  0  0
  -11.5240  -15.6130   10.1760 H   0  0  0  0  0  0  0  0  0  0  0  0
  -15.2060  -15.0840    9.5980 N   0  0  0  0  0  0  0  0  0  0  0  0
  -16.2710  -16.0390    9.2740 C   0  0  1  0  0  0  0  0  0  0  0  0
  -17.6100  -15.7030   10.0100 C   0  0  1  0  0  0  0  0  0  0  0  0
  -17.4430  -15.9160   11.5010 C   0  0  2  0  0  0  0  0  0  0  0  0
  -17.8690  -14.3490    9.6430 O   0  0  0  0  0  0  0  0  0  0  0  0
  -19.3170  -13.7540   10.0000 P   0  0  0  0  0  0  0  0  0  0  0  0
  -19.4050  -12.4760    9.0450 O   0  0  0  0  0  0  0  0  0  0  0  0
  -19.3160  -13.3420   11.4280 O   0  0  0  0  0  0  0  0  0  0  0  0
  -20.4260  -14.7980    9.6740 O   0  0  0  0  0  0  0  0  0  0  0  0
  -16.4470  -16.0170    7.7680 C   0  0  0  0  0  0  0  0  0  0  0  0
  -16.0330  -15.0500    7.0840 O   0  0  0  0  0  0  0  0  0  0  0  0
  -16.0370  -16.9380    9.5850 H   0  0  0  0  0  0  0  0  0  0  0  0
  -18.4500  -16.3400    9.7340 H   0  0  0  0  0  0  0  0  0  0  0  0
  -17.1610  -16.9520   11.6910 H   0  0  0  0  0  0  0  0  0  0  0  0
  -18.3830  -15.6970   12.0070 H   0  0  0  0  0  0  0  0  0  0  0  0
  -16.6640  -15.2530   11.8780 H   0  0  0  0  0  0  0  0  0  0  0  0
  -17.0230  -17.0890    7.2420 N   0  0  0  0  0  0  0  0  0  0  0  0
  -17.2760  -17.1730    5.8120 C   0  0  2  0  0  0  0  0  0  0  0  0
  -18.7060  -17.5290    5.4770 C   0  0  0  0  0  0  0  0  0  0  0  0
  -19.5000  -17.9370    6.3420 O   0  0  0  0  0  0  0  0  0  0  0  0
  -16.3540  -18.1930    5.1070 C   0  0  0  0  0  0  0  0  0  0  0  0
  -14.9520  -17.8140    5.2910 C   0  0  0  0  0  0  0  0  0  0  0  0
  -16.6270  -19.6060    5.6090 C   0  0  0  0  0  0  0  0  0  0  0  0
  -19.0750  -17.4150    4.2810 O   0  0  0  0  0  0  0  0  0  0  0  0
  -17.2760  -17.7770    7.6900 H   0  0  0  0  0  0  0  0  0  0  0  0
  -17.0950  -16.2800    5.4790 H   0  0  0  0  0  0  0  0  0  0  0  0
  -16.5390  -18.1890    4.1550 H   0  0  0  0  0  0  0  0  0  0  0  0
  -14.3920  -18.4240    4.7860 H   0  0  0  0  0  0  0  0  0  0  0  0
  -14.8250  -16.9070    4.9700 H   0  0  0  0  0  0  0  0  0  0  0  0
  -14.7320  -17.8660    6.2340 H   0  0  0  0  0  0  0  0  0  0  0  0
  -15.9100  -20.1900    5.3150 H   0  0  0  0  0  0  0  0  0  0  0  0
  -16.6680  -19.5950    6.5780 H   0  0  0  0  0  0  0  0  0  0  0  0
  -17.4730  -19.9120    5.2460 H   0  0  0  0  0  0  0  0  0  0  0  0
  2  1  1  0
  3  2  1  0
  4  3  2  0
  5  2  1  0
  6  5  1  0
  7  6  2  0
  8  6  1  0
  9  7  1  0
 10  8  2  0
 11  9  2  0
 11 10  1  0
  2 12  1  1
 13  5  1  0
 14  5  1  0
 15  7  1  0
 16  8  1  0
 17  9  1  0
 18 10  1  0
 19 11  1  0
 20  3  1  0
 21 20  1  0
 22 21  1  0
 23 22  2  0
 24 21  1  0
 25 24  1  0
 26 25  1  0
 26 20  1  0
 21 27  1  6
 28 24  1  0
 29 24  1  0
 30 25  1  0
 31 25  1  0
 32 26  1  0
 33 26  1  0
 34 22  1  0
 35 34  1  0
 36 35  1  0
 37 36  2  0
 38 35  1  0
 39 34  1  0
 35 40  1  6
 41 38  1  0
 42 38  1  0
 43 38  1  0
 44 36  1  0
 45 44  1  0
 46 45  1  0
 47 46  1  0
 48 46  1  0
 49 48  1  0
 50 49  1  0
 51 49  1  0
 52 49  1  0
 53 45  1  0
 54 53  1  0
 45 55  1  1
 46 56  1  6
 47 57  1  6
 58 47  1  0
 59 47  1  0
 60 53  1  0
 61 60  1  0
 62 61  1  0
 63 62  2  0
 64 61  1  0
 65 64  1  0
 66 64  1  0
 67 62  1  0
 68 60  1  0
 61 69  1  6
 70 64  1  0
 71 65  1  0
 72 65  1  0
 73 65  1  0
 74 66  1  0
 75 66  1  0
 76 66  1  0
M  END
$$$$
8BX4
     RDKit          3D

 76 77  0  0  0  0  0  0  0  0999 V2000
   28.2060   -8.0550   14.6110 N   0  0  0  0  0  0  0  0  0  0  0  0
   27.3650   -9.2510   14.6490 C   0  0  2  0  0  0  0  0  0  0  0  0
   28.0820  -10.4670   14.0550 C   0  0  0  0  0  0  0  0  0  0  0  0
   28.9890  -10.3290   13.2400 O   0  0  0  0  0  0  0  0  0  0  0  0
   26.0360   -8.9970   13.9040 C   0  0  0  0  0  0  0  0  0  0  0  0
   26.2050   -8.4010   12.5260 C   0  0  0  0  0  0  0  0  0  0  0  0
   26.4630   -9.2090   11.4240 C   0  0  0  0  0  0  0  0  0  0  0  0
   26.1000   -7.0280   12.3330 C   0  0  0  0  0  0  0  0  0  0  0  0
   26.6210   -8.6560   10.1580 C   0  0  0  0  0  0  0  0  0  0  0  0
   26.2630   -6.4700   11.0700 C   0  0  0  0  0  0  0  0  0  0  0  0
   26.5170   -7.2850    9.9820 C   0  0  0  0  0  0  0  0  0  0  0  0
   27.1600   -9.4590   15.5740 H   0  0  0  0  0  0  0  0  0  0  0  0
   25.5700   -9.8410   13.8050 H   0  0  0  0  0  0  0  0  0  0  0  0
   25.5000   -8.3810   14.4280 H   0  0  0  0  0  0  0  0  0  0  0  0
   26.5320  -10.1290   11.5360 H   0  0  0  0  0  0  0  0  0  0  0  0
   25.9180   -6.4760   13.0590 H   0  0  0  0  0  0  0  0  0  0  0  0
   26.7960   -9.2070    9.4290 H   0  0  0  0  0  0  0  0  0  0  0  0
   26.2020   -5.5490   10.9580 H   0  0  0  0  0  0  0  0  0  0  0  0
   26.6170   -6.9140    9.1350 H   0  0  0  0  0  0  0  0  0  0  0  0
   27.6840  -11.6610   14.4780 N   0  0  0  0  0  0  0  0  0  0  0  0
   28.2520  -12.8780   13.8900 C   0  0  2  0  0  0  0  0  0  0  0  0
   27.6500  -13.1830   12.5270 C   0  0  0  0  0  0  0  0  0  0  0  0
   26.5790  -12.6910   12.1560 O   0  0  0  0  0  0  0  0  0  0  0  0
   27.8870  -13.9580   14.9150 C   0  0  0  0  0  0  0  0  0  0  0  0
   26.6020  -13.4770   15.5080 C   0  0  0  0  0  0  0  0  0  0  0  0
   26.7220  -11.9620   15.5590 C   0  0  0  0  0  0  0  0  0  0  0  0
   29.2170  -12.8140   13.8090 H   0  0  0  0  0  0  0  0  0  0  0  0
   27.7700  -14.8120   14.4720 H   0  0  0  0  0  0  0  0  0  0  0  0
   28.5810  -14.0260   15.5890 H   0  0  0  0  0  0  0  0  0  0  0  0
   25.8590  -13.7450   14.9460 H   0  0  0  0  0  0  0  0  0  0  0  0
   26.4940  -13.8440   16.3990 H   0  0  0  0  0  0  0  0  0  0  0  0
   25.8650  -11.5420   15.3860 H   0  0  0  0  0  0  0  0  0  0  0  0
   27.0670  -11.6720   16.4180 H   0  0  0  0  0  0  0  0  0  0  0  0
   28.3560  -14.0340   11.7820 N   0  0  0  0  0  0  0  0  0  0  0  0
   27.9430  -14.4080   10.4630 C   0  0  2  0  0  0  0  0  0  0  0  0
   26.8250  -15.4490   10.4350 C   0  0  0  0  0  0  0  0  0  0  0  0
   26.8760  -16.4360   11.1540 O   0  0  0  0  0  0  0  0  0  0  0  0
   29.1380  -14.9470    9.6770 C   0  0  0  0  0  0  0  0  0  0  0  0
   29.0880  -14.4070   12.0370 H   0  0  0  0  0  0  0  0  0  0  0  0
   27.5920  -13.6060   10.0450 H   0  0  0  0  0  0  0  0  0  0  0  0
   28.8450  -15.1900    8.7850 H   0  0  0  0  0  0  0  0  0  0  0  0
   29.8190  -14.2590    9.6260 H   0  0  0  0  0  0  0  0  0  0  0  0
   29.4900  -15.7280   10.1330 H   0  0  0  0  0  0  0  0  0  0  0  0
   25.8190  -15.1800    9.6090 N   0  0  0  0  0  0  0  0  0  0  0  0
   24.7400  -16.1090    9.2650 C   0  0  1  0  0  0  0  0  0  0  0  0
   23.4150  -15.7590   10.0150 C   0  0  1  0  0  0  0  0  0  0  0  0
   23.6030  -15.9600   11.5060 C   0  0  2  0  0  0  0  0  0  0  0  0
   23.1590  -14.3970    9.6420 O   0  0  0  0  0  0  0  0  0  0  0  0
   21.7060  -13.7960   10.0230 P   0  0  0  0  0  0  0  0  0  0  0  0
   21.6080  -12.5200    9.0740 O   0  0  0  0  0  0  0  0  0  0  0  0
   21.7100  -13.4120   11.4490 O   0  0  0  0  0  0  0  0  0  0  0  0
   20.6100  -14.8480    9.6600 O   0  0  0  0  0  0  0  0  0  0  0  0
   24.5420  -16.0700    7.7530 C   0  0  0  0  0  0  0  0  0  0  0  0
   24.9190  -15.0840    7.0650 O   0  0  0  0  0  0  0  0  0  0  0  0
   24.9720  -17.0180    9.5500 H   0  0  0  0  0  0  0  0  0  0  0  0
   22.5670  -16.3920    9.7540 H   0  0  0  0  0  0  0  0  0  0  0  0
   24.3990  -15.3080   11.8650 H   0  0  0  0  0  0  0  0  0  0  0  0
   23.8690  -16.9990   11.7030 H   0  0  0  0  0  0  0  0  0  0  0  0
   22.6750  -15.7200   12.0260 H   0  0  0  0  0  0  0  0  0  0  0  0
   23.9880  -17.1500    7.2240 N   0  0  0  0  0  0  0  0  0  0  0  0
   23.6940  -17.2270    5.7970 C   0  0  2  0  0  0  0  0  0  0  0  0
   22.2550  -17.5860    5.4880 C   0  0  0  0  0  0  0  0  0  0  0  0
   21.4660  -18.0050    6.3540 O   0  0  0  0  0  0  0  0  0  0  0  0
   24.6030  -18.2430    5.0790 C   0  0  0  0  0  0  0  0  0  0  0  0
   26.0300  -17.8500    5.2390 C   0  0  0  0  0  0  0  0  0  0  0  0
   24.3500  -19.6620    5.5730 C   0  0  0  0  0  0  0  0  0  0  0  0
   21.8510  -17.4550    4.3050 O   0  0  0  0  0  0  0  0  0  0  0  0
   23.7710  -17.8530    7.6680 H   0  0  0  0  0  0  0  0  0  0  0  0
   23.8550  -16.3320    5.4610 H   0  0  0  0  0  0  0  0  0  0  0  0
   24.3950  -18.2400    4.1320 H   0  0  0  0  0  0  0  0  0  0  0  0
   26.0710  -16.9700    5.6450 H   0  0  0  0  0  0  0  0  0  0  0  0
   26.4740  -18.4970    5.8080 H   0  0  0  0  0  0  0  0  0  0  0  0
   26.4520  -17.8320    4.3660 H   0  0  0  0  0  0  0  0  0  0  0  0
   25.0520  -20.2420    5.2390 H   0  0  0  0  0  0  0  0  0  0  0  0
   24.3530  -19.6630    6.5430 H   0  0  0  0  0  0  0  0  0  0  0  0
   23.4890  -19.9620    5.2440 H   0  0  0  0  0  0  0  0  0  0  0  0
  2  1  1  0
  3  2  1  0
  4  3  2  0
  5  2  1  0
  6  5  1  0
  7  6  2  0
  8  6  1  0
  9  7  1  0
 10  8  2  0
 11  9  2  0
 11 10  1  0
  2 12  1  1
 13  5  1  0
 14  5  1  0
 15  7  1  0
 16  8  1  0
 17  9  1  0
 18 10  1  0
 19 11  1  0
 20  3  1  0
 21 20  1  0
 22 21  1  0
 23 22  2  0
 24 21  1  0
 25 24  1  0
 26 25  1  0
 26 20  1  0
 21 27  1  6
 28 24  1  0
 29 24  1  0
 30 25  1  0
 31 25  1  0
 32 26  1  0
 33 26  1  0
 34 22  1  0
 35 34  1  0
 36 35  1  0
 37 36  2  0
 38 35  1  0
 39 34  1  0
 35 40  1  6
 41 38  1  0
 42 38  1  0
 43 38  1  0
 44 36  1  0
 45 44  1  0
 46 45  1  0
 47 46  1  0
 48 46  1  0
 49 48  1  0
 50 49  1  0
 51 49  1  0
 52 49  1  0
 53 45  1  0
 54 53  1  0
 45 55  1  1
 46 56  1  6
 47 57  1  1
 58 47  1  0
 59 47  1  0
 60 53  1  0
 61 60  1  0
 62 61  1  0
 63 62  2  0
 64 61  1  0
 65 64  1  0
 66 64  1  0
 67 62  1  0
 68 60  1  0
 61 69  1  6
 70 64  1  0
 71 65  1  0
 72 65  1  0
 73 65  1  0
 74 66  1  0
 75 66  1  0
 76 66  1  0
M  END
$$$$
8BYF
     RDKit          3D

 71 72  0  0  0  0  0  0  0  0999 V2000
   12.7310    7.9530   14.4390 N   0  0  0  0  0  0  0  0  0  0  0  0
   13.6190    9.1170   14.4460 C   0  0  2  0  0  0  0  0  0  0  0  0
   12.9160   10.3560   13.8690 C   0  0  0  0  0  0  0  0  0  0  0  0
   11.9780   10.2390   13.0690 O   0  0  0  0  0  0  0  0  0  0  0  0
   14.9080    8.8270   13.6590 C   0  0  0  0  0  0  0  0  0  0  0  0
   14.6840    8.2010   12.3150 C   0  0  0  0  0  0  0  0  0  0  0  0
   14.6090    6.8240   12.1870 C   0  0  0  0  0  0  0  0  0  0  0  0
   14.5320    8.9860   11.1800 C   0  0  0  0  0  0  0  0  0  0  0  0
   14.3900    6.2370   10.9520 C   0  0  0  0  0  0  0  0  0  0  0  0
   14.3160    8.4010    9.9350 C   0  0  0  0  0  0  0  0  0  0  0  0
   14.2480    7.0250    9.8250 C   0  0  0  0  0  0  0  0  0  0  0  0
   13.8660    9.3110   15.3630 H   0  0  0  0  0  0  0  0  0  0  0  0
   15.3800    9.6630   13.5190 H   0  0  0  0  0  0  0  0  0  0  0  0
   15.4580    8.2190   14.1780 H   0  0  0  0  0  0  0  0  0  0  0  0
   14.7070    6.2870   12.9390 H   0  0  0  0  0  0  0  0  0  0  0  0
   14.5750    9.9120   11.2520 H   0  0  0  0  0  0  0  0  0  0  0  0
   14.3380    5.3110   10.8810 H   0  0  0  0  0  0  0  0  0  0  0  0
   14.2180    8.9340    9.1790 H   0  0  0  0  0  0  0  0  0  0  0  0
   14.1070    6.6300    8.9950 H   0  0  0  0  0  0  0  0  0  0  0  0
   13.3620   11.5420   14.2750 N   0  0  0  0  0  0  0  0  0  0  0  0
   12.7970   12.7710   13.7150 C   0  0  2  0  0  0  0  0  0  0  0  0
   13.3980   13.0940   12.3580 C   0  0  0  0  0  0  0  0  0  0  0  0
   14.4680   12.6240   11.9850 O   0  0  0  0  0  0  0  0  0  0  0  0
   13.1600   13.8300   14.7620 C   0  0  0  0  0  0  0  0  0  0  0  0
   14.4230   13.3370   15.3690 C   0  0  0  0  0  0  0  0  0  0  0  0
   14.3240   11.8230   15.3630 C   0  0  0  0  0  0  0  0  0  0  0  0
   11.8320   12.7160   13.6350 H   0  0  0  0  0  0  0  0  0  0  0  0
   13.2910   14.6900   14.3330 H   0  0  0  0  0  0  0  0  0  0  0  0
   12.4560   13.8950   15.4270 H   0  0  0  0  0  0  0  0  0  0  0  0
   15.1790   13.6340   14.8380 H   0  0  0  0  0  0  0  0  0  0  0  0
   14.5040   13.6720   16.2760 H   0  0  0  0  0  0  0  0  0  0  0  0
   15.1860   11.4220   15.1720 H   0  0  0  0  0  0  0  0  0  0  0  0
   13.9870   11.4970   16.2120 H   0  0  0  0  0  0  0  0  0  0  0  0
   12.6830   13.9290   11.6080 N   0  0  0  0  0  0  0  0  0  0  0  0
   13.1040   14.2690   10.2830 C   0  0  2  0  0  0  0  0  0  0  0  0
   14.2120   15.3140   10.2680 C   0  0  0  0  0  0  0  0  0  0  0  0
   14.1480   16.2890   11.0100 O   0  0  0  0  0  0  0  0  0  0  0  0
   11.9070   14.7800    9.4700 C   0  0  0  0  0  0  0  0  0  0  0  0
   11.9500   14.3050   11.8570 H   0  0  0  0  0  0  0  0  0  0  0  0
   13.4590   13.4650    9.8710 H   0  0  0  0  0  0  0  0  0  0  0  0
   12.2060   15.0060    8.5760 H   0  0  0  0  0  0  0  0  0  0  0  0
   11.2330   14.0830    9.4270 H   0  0  0  0  0  0  0  0  0  0  0  0
   11.5420   15.5660    9.9060 H   0  0  0  0  0  0  0  0  0  0  0  0
   15.2130   15.0920    9.4210 N   0  0  0  0  0  0  0  0  0  0  0  0
   16.2730   16.0570    9.1450 C   0  0  1  0  0  0  0  0  0  0  0  0
   17.5970   15.7040    9.8940 C   0  0  1  0  0  0  0  0  0  0  0  0
   17.4830   15.9110   11.4170 C   0  0  0  0  0  0  0  0  0  0  0  0
   17.8080   14.3350    9.5580 O   0  0  0  0  0  0  0  0  0  0  0  0
   19.2860   13.7580    9.9060 P   0  0  0  0  0  0  0  0  0  0  0  0
   19.4460   12.4710    9.0050 O   0  0  0  0  0  0  0  0  0  0  0  0
   19.2880   13.3560   11.3370 O   0  0  0  0  0  0  0  0  0  0  0  0
   20.4030   14.7680    9.5620 O   0  0  0  0  0  0  0  0  0  0  0  0
   16.4950   16.0510    7.6510 C   0  0  0  0  0  0  0  0  0  0  0  0
   16.1620   15.0610    6.9770 O   0  0  0  0  0  0  0  0  0  0  0  0
   17.0550   17.1310    7.1310 N   0  0  0  0  0  0  0  0  0  0  0  0
   17.3420   17.2170    5.7010 C   0  0  2  0  0  0  0  0  0  0  0  0
   18.7530   17.6120    5.4110 C   0  0  0  0  0  0  0  0  0  0  0  0
   19.5250   18.0040    6.2980 O   0  0  0  0  0  0  0  0  0  0  0  0
   16.4140   18.2120    4.9760 C   0  0  0  0  0  0  0  0  0  0  0  0
   15.0230   17.7620    5.0800 C   0  0  0  0  0  0  0  0  0  0  0  0
   16.6010   19.6270    5.5260 C   0  0  0  0  0  0  0  0  0  0  0  0
   19.1090   17.5580    4.2170 O   0  0  0  0  0  0  0  0  0  0  0  0
   17.2790   17.8290    7.5810 H   0  0  0  0  0  0  0  0  0  0  0  0
   17.1940   16.3200    5.3630 H   0  0  0  0  0  0  0  0  0  0  0  0
   16.6430   18.2440    4.0340 H   0  0  0  0  0  0  0  0  0  0  0  0
   14.4550   18.3790    4.5920 H   0  0  0  0  0  0  0  0  0  0  0  0
   14.9500   16.8730    4.6990 H   0  0  0  0  0  0  0  0  0  0  0  0
   14.7660   17.7440    6.0150 H   0  0  0  0  0  0  0  0  0  0  0  0
   15.9010   20.1980    5.1730 H   0  0  0  0  0  0  0  0  0  0  0  0
   16.5480   19.6000    6.4940 H   0  0  0  0  0  0  0  0  0  0  0  0
   17.4690   19.9610    5.2520 H   0  0  0  0  0  0  0  0  0  0  0  0
  2  1  1  0
  3  2  1  0
  4  3  2  0
  5  2  1  0
  6  5  1  0
  7  6  2  0
  8  6  1  0
  9  7  1  0
 10  8  2  0
 11 10  1  0
 11  9  2  0
  2 12  1  1
 13  5  1  0
 14  5  1  0
 15  7  1  0
 16  8  1  0
 17  9  1  0
 18 10  1  0
 19 11  1  0
 20  3  1  0
 21 20  1  0
 22 21  1  0
 23 22  2  0
 24 21  1  0
 25 24  1  0
 26 25  1  0
 26 20  1  0
 21 27  1  6
 28 24  1  0
 29 24  1  0
 30 25  1  0
 31 25  1  0
 32 26  1  0
 33 26  1  0
 34 22  1  0
 35 34  1  0
 36 35  1  0
 37 36  2  0
 38 35  1  0
 39 34  1  0
 35 40  1  6
 41 38  1  0
 42 38  1  0
 43 38  1  0
 44 36  1  0
 45 44  1  6
 46 45  1  0
 46 47  1  1
 48 46  1  0
 49 48  1  0
 50 49  1  0
 51 49  1  0
 52 49  1  0
 53 45  1  0
 54 53  1  0
 55 53  1  0
 56 55  1  0
 57 56  1  0
 58 57  2  0
 59 56  1  0
 60 59  1  0
 61 59  1  0
 62 57  1  0
 63 55  1  0
 56 64  1  6
 65 59  1  0
 66 60  1  0
 67 60  1  0
 68 60  1  0
 69 61  1  0
 70 61  1  0
 71 61  1  0
M  END
$$$$
8BYG
     RDKit          3D

 71 72  0  0  0  0  0  0  0  0999 V2000
   12.8360    8.0750   14.5740 N   0  0  0  0  0  0  0  0  0  0  0  0
   13.6930    9.2540   14.6340 C   0  0  2  0  0  0  0  0  0  0  0  0
   13.0090   10.4810   14.0160 C   0  0  0  0  0  0  0  0  0  0  0  0
   12.0950   10.3570   13.1860 O   0  0  0  0  0  0  0  0  0  0  0  0
   15.0340    8.9710   13.9320 C   0  0  0  0  0  0  0  0  0  0  0  0
   14.9040    8.4590   12.5120 C   0  0  0  0  0  0  0  0  0  0  0  0
   15.2000    7.1400   12.2030 C   0  0  0  0  0  0  0  0  0  0  0  0
   14.5110    9.3120   11.4780 C   0  0  0  0  0  0  0  0  0  0  0  0
   15.0670    6.6660   10.8960 C   0  0  0  0  0  0  0  0  0  0  0  0
   14.3880    8.8470   10.1820 C   0  0  0  0  0  0  0  0  0  0  0  0
   14.6730    7.5090    9.8930 C   0  0  0  0  0  0  0  0  0  0  0  0
   13.8760    9.4640   15.5630 H   0  0  0  0  0  0  0  0  0  0  0  0
   15.5460    9.7940   13.9010 H   0  0  0  0  0  0  0  0  0  0  0  0
   15.5140    8.3000   14.4420 H   0  0  0  0  0  0  0  0  0  0  0  0
   15.4900    6.5640   12.8730 H   0  0  0  0  0  0  0  0  0  0  0  0
   14.3290   10.2050   11.6640 H   0  0  0  0  0  0  0  0  0  0  0  0
   15.2460    5.7730   10.7070 H   0  0  0  0  0  0  0  0  0  0  0  0
   14.1170    9.4220    9.5040 H   0  0  0  0  0  0  0  0  0  0  0  0
   14.5960    7.1930    9.0210 H   0  0  0  0  0  0  0  0  0  0  0  0
   13.4200   11.6690   14.4400 N   0  0  0  0  0  0  0  0  0  0  0  0
   12.8380   12.8930   13.8770 C   0  0  2  0  0  0  0  0  0  0  0  0
   13.4350   13.2070   12.5080 C   0  0  0  0  0  0  0  0  0  0  0  0
   14.4940   12.7140   12.1300 O   0  0  0  0  0  0  0  0  0  0  0  0
   13.2040   13.9590   14.9120 C   0  0  0  0  0  0  0  0  0  0  0  0
   14.5190   13.4790   15.4590 C   0  0  0  0  0  0  0  0  0  0  0  0
   14.4150   11.9550   15.4950 C   0  0  0  0  0  0  0  0  0  0  0  0
   11.8720   12.8340   13.8050 H   0  0  0  0  0  0  0  0  0  0  0  0
   13.2940   14.8250   14.4860 H   0  0  0  0  0  0  0  0  0  0  0  0
   12.5270   13.9990   15.6060 H   0  0  0  0  0  0  0  0  0  0  0  0
   15.2400   13.7620   14.8750 H   0  0  0  0  0  0  0  0  0  0  0  0
   14.6540   13.8370   16.3510 H   0  0  0  0  0  0  0  0  0  0  0  0
   15.2690   11.5440   15.2880 H   0  0  0  0  0  0  0  0  0  0  0  0
   14.1010   11.6500   16.3610 H   0  0  0  0  0  0  0  0  0  0  0  0
   12.7310   14.0510   11.7590 N   0  0  0  0  0  0  0  0  0  0  0  0
   13.1380   14.3650   10.3950 C   0  0  2  0  0  0  0  0  0  0  0  0
   14.2530   15.4250   10.3550 C   0  0  0  0  0  0  0  0  0  0  0  0
   14.1670   16.4150   11.0550 O   0  0  0  0  0  0  0  0  0  0  0  0
   11.9410   14.8470    9.5950 C   0  0  0  0  0  0  0  0  0  0  0  0
   12.0160   14.4520   12.0180 H   0  0  0  0  0  0  0  0  0  0  0  0
   13.4880   13.5570    9.9880 H   0  0  0  0  0  0  0  0  0  0  0  0
   12.2270   15.0520    8.6910 H   0  0  0  0  0  0  0  0  0  0  0  0
   11.2700   14.1480    9.5790 H   0  0  0  0  0  0  0  0  0  0  0  0
   11.5800   15.6430   10.0160 H   0  0  0  0  0  0  0  0  0  0  0  0
   15.2680   15.1910    9.5140 N   0  0  0  0  0  0  0  0  0  0  0  0
   16.3230   16.1440    9.2070 C   0  0  1  0  0  0  0  0  0  0  0  0
   17.6640   15.7890    9.9270 C   0  0  1  0  0  0  0  0  0  0  0  0
   17.5200   16.0470   11.4440 C   0  0  0  0  0  0  0  0  0  0  0  0
   17.8720   14.4090    9.5960 O   0  0  0  0  0  0  0  0  0  0  0  0
   19.3370   13.8250    9.9250 P   0  0  0  0  0  0  0  0  0  0  0  0
   19.4360   12.5110    9.0370 O   0  0  0  0  0  0  0  0  0  0  0  0
   19.3590   13.5110   11.3620 O   0  0  0  0  0  0  0  0  0  0  0  0
   20.4550   14.8590    9.5550 O   0  0  0  0  0  0  0  0  0  0  0  0
   16.5160   16.1360    7.7010 C   0  0  0  0  0  0  0  0  0  0  0  0
   16.1640   15.1500    7.0320 O   0  0  0  0  0  0  0  0  0  0  0  0
   17.0500   17.2160    7.1680 N   0  0  0  0  0  0  0  0  0  0  0  0
   17.3390   17.2790    5.7440 C   0  0  2  0  0  0  0  0  0  0  0  0
   18.7760   17.6300    5.4550 C   0  0  0  0  0  0  0  0  0  0  0  0
   19.5330   18.1240    6.3050 O   0  0  0  0  0  0  0  0  0  0  0  0
   16.4460   18.2810    5.0140 C   0  0  0  0  0  0  0  0  0  0  0  0
   15.0320   17.8660    5.1730 C   0  0  0  0  0  0  0  0  0  0  0  0
   16.6870   19.7020    5.5330 C   0  0  0  0  0  0  0  0  0  0  0  0
   19.1710   17.4470    4.2890 O   0  0  0  0  0  0  0  0  0  0  0  0
   17.2550   17.9280    7.6050 H   0  0  0  0  0  0  0  0  0  0  0  0
   17.1660   16.3850    5.4100 H   0  0  0  0  0  0  0  0  0  0  0  0
   16.6590   18.2950    4.0680 H   0  0  0  0  0  0  0  0  0  0  0  0
   14.4680   18.4550    4.6470 H   0  0  0  0  0  0  0  0  0  0  0  0
   14.9340   16.9520    4.8640 H   0  0  0  0  0  0  0  0  0  0  0  0
   14.7880   17.9260    6.1100 H   0  0  0  0  0  0  0  0  0  0  0  0
   15.9920   20.2850    5.1910 H   0  0  0  0  0  0  0  0  0  0  0  0
   16.6640   19.6920    6.5030 H   0  0  0  0  0  0  0  0  0  0  0  0
   17.5550   20.0070    5.2260 H   0  0  0  0  0  0  0  0  0  0  0  0
  2  1  1  0
  3  2  1  0
  4  3  2  0
  5  2  1  0
  6  5  1  0
  7  6  2  0
  8  6  1  0
  9  7  1  0
 10  8  2  0
 11 10  1  0
 11  9  2  0
  2 12  1  1
 13  5  1  0
 14  5  1  0
 15  7  1  0
 16  8  1  0
 17  9  1  0
 18 10  1  0
 19 11  1  0
 20  3  1  0
 21 20  1  0
 22 21  1  0
 23 22  2  0
 24 21  1  0
 25 24  1  0
 26 25  1  0
 26 20  1  0
 21 27  1  6
 28 24  1  0
 29 24  1  0
 30 25  1  0
 31 25  1  0
 32 26  1  0
 33 26  1  0
 34 22  1  0
 35 34  1  0
 36 35  1  0
 37 36  2  0
 38 35  1  0
 39 34  1  0
 35 40  1  6
 41 38  1  0
 42 38  1  0
 43 38  1  0
 44 36  1  0
 45 44  1  6
 46 45  1  0
 46 47  1  1
 48 46  1  0
 49 48  1  0
 50 49  1  0
 51 49  1  0
 52 49  1  0
 53 45  1  0
 54 53  1  0
 55 53  1  0
 56 55  1  0
 57 56  1  0
 58 57  2  0
 59 56  1  0
 60 59  1  0
 61 59  1  0
 62 57  1  0
 63 55  1  0
 56 64  1  6
 65 59  1  0
 66 60  1  0
 67 60  1  0
 68 60  1  0
 69 61  1  0
 70 61  1  0
 71 61  1  0
M  END
$$$$
5WGQ
     RDKit          3D

 20 23  0  0  0  0  0  0  0  0999 V2000
   -8.7610   17.6330    7.2480 C   0  0  0  0  0  0  0  0  0  0  0  0
  -10.0870   17.8190    7.4940 C   0  0  0  0  0  0  0  0  0  0  0  0
  -10.9180   18.3790    6.5530 C   0  0  0  0  0  0  0  0  0  0  0  0
  -12.2040   18.5450    6.8030 O   0  0  0  0  0  0  0  0  0  0  0  0
  -10.4530   18.7800    5.3300 C   0  0  0  0  0  0  0  0  0  0  0  0
   -9.1320   18.6190    5.0420 C   0  0  0  0  0  0  0  0  0  0  0  0
   -8.6260   19.0450    3.7100 C   0  0  0  0  0  0  0  0  0  0  0  0
   -7.1190   18.9950    3.5990 C   0  0  0  0  0  0  0  0  0  0  0  0
   -6.5100   17.8010    4.2710 C   0  0  2  0  0  0  0  0  0  0  0  0
   -6.7920   17.8260    5.7610 C   0  0  1  0  0  0  0  0  0  0  0  0
   -8.2360   18.0040    6.0390 C   0  0  0  0  0  0  0  0  0  0  0  0
   -6.1950   16.6080    6.4470 C   0  0  0  0  0  0  0  0  0  0  0  0
   -4.7060   16.4970    6.1770 C   0  0  0  0  0  0  0  0  0  0  0  0
   -4.3920   16.5650    4.7060 C   0  0  1  0  0  0  0  0  0  0  0  0
   -5.0150   17.8110    4.1440 C   0  0  1  0  0  0  0  0  0  0  0  0
   -4.4320   17.9640    2.7750 C   0  0  0  0  0  0  0  0  0  0  0  0
   -3.0480   17.3930    2.9200 C   0  0  0  0  0  0  0  0  0  0  0  0
   -2.9610   16.8000    4.2980 C   0  0  2  0  0  0  0  0  0  0  0  0
   -2.2120   15.6300    4.1400 O   0  0  0  0  0  0  0  0  0  0  0  0
   -4.8930   15.3080    4.0380 C   0  0  0  0  0  0  0  0  0  0  0  0
  2  1  1  0
  3  2  1  0
  4  3  1  0
  5  3  1  0
  6  5  1  0
  7  6  1  0
  8  7  1  0
  9  8  1  6
 10  9  1  0
 11  6  1  0
 11 10  1  0
 11  1  1  0
 10 12  1  6
 13 12  1  0
 14 13  1  0
 15  9  1  0
 15 14  1  0
 15 16  1  6
 17 16  1  0
 18 17  1  0
 18 14  1  0
 18 19  1  6
 14 20  1  6
M  END
$$$$
4MG8
     RDKit          3D

 23 24  0  0  0  0  0  0  0  0999 V2000
   -7.6530   -5.1250   24.3950 C   0  0  0  0  0  0  0  0  0  0  0  0
   -6.4560   -4.2240   24.4950 C   0  0  0  0  0  0  0  0  0  0  0  0
   -6.6530   -2.9680   23.7350 C   0  0  0  0  0  0  0  0  0  0  0  0
   -5.3430   -2.2170   23.5800 C   0  0  2  0  0  0  0  0  0  0  0  0
   -5.6220   -0.7530   23.2250 C   0  0  0  0  0  0  0  0  0  0  0  0
   -4.5180   -2.8640   22.6240 O   0  0  0  0  0  0  0  0  0  0  0  0
   -3.2220   -2.7530   22.7800 C   0  0  2  0  0  0  0  0  0  0  0  0
   -2.7470   -2.2070   23.7550 O   0  0  0  0  0  0  0  0  0  0  0  0
   -2.3850   -3.2060   21.7030 C   0  0  2  0  0  0  0  0  0  0  0  0
   -1.0260   -3.0230   21.7980 C   0  0  0  0  0  0  0  0  0  0  0  0
   -0.5410   -2.4810   22.9190 O   0  0  0  0  0  0  0  0  0  0  0  0
   -0.1420   -3.3920   20.8250 C   0  0  0  0  0  0  0  0  0  0  0  0
   -0.6040   -3.9410   19.6840 C   0  0  0  0  0  0  0  0  0  0  0  0
    0.2740   -4.2990   18.7470 O   0  0  0  0  0  0  0  0  0  0  0  0
   -1.9420   -4.1200   19.5320 C   0  0  0  0  0  0  0  0  0  0  0  0
   -2.8540   -3.7880   20.4960 C   0  0  0  0  0  0  0  0  0  0  0  0
   -4.1700   -4.0250   20.1890 C   0  0  0  0  0  0  0  0  0  0  0  0
   -4.5920   -5.3680   20.6670 C   0  0  0  0  0  0  0  0  0  0  0  0
   -6.0310   -5.6040   20.5150 C   0  0  0  0  0  0  0  0  0  0  0  0
   -6.4970   -6.8980   21.1750 C   0  0  0  0  0  0  0  0  0  0  0  0
   -6.7970   -6.7690   22.7040 C   0  0  0  0  0  0  0  0  0  0  0  0
   -7.8610   -5.7620   23.0240 C   0  0  1  0  0  0  0  0  0  0  0  0
   -9.0680   -6.4300   22.9870 O   0  0  0  0  0  0  0  0  0  0  0  0
  2  1  1  0
  3  2  1  0
  4  3  1  0
  4  5  1  6
  6  4  1  0
  7  6  1  0
  7  8  1  6
  9  7  1  0
  9 10  1  6
 11 10  1  0
 12 10  1  0
 13 12  1  0
 14 13  1  0
 15 13  1  0
 16 15  1  0
 16  9  1  0
 17 16  1  0
 18 17  1  0
 19 18  1  0
 20 19  1  0
 21 20  1  0
 22 21  1  0
 22  1  1  0
 22 23  1  1
M  END
$$$$
5ACC
     RDKit          3D

 32 35  0  0  0  0  0  0  0  0999 V2000
   12.9230   23.4630   61.4140 C   0  0  0  0  0  0  0  0  0  0  0  0
   12.5880   23.6340   62.9000 C   0  0  2  0  0  0  0  0  0  0  0  0
   13.2720   24.8640   63.4830 C   0  0  0  0  0  0  0  0  0  0  0  0
   14.7130   24.5600   63.7700 C   0  0  0  0  0  0  0  0  0  0  0  0
   15.8080   25.4510   63.9320 C   0  0  0  0  0  0  0  0  0  0  0  0
   15.9240   26.8320   63.8890 C   0  0  0  0  0  0  0  0  0  0  0  0
   17.1800   27.3810   64.0960 C   0  0  0  0  0  0  0  0  0  0  0  0
   18.2840   26.5870   64.3470 C   0  0  0  0  0  0  0  0  0  0  0  0
   18.1830   25.2060   64.3930 C   0  0  0  0  0  0  0  0  0  0  0  0
   16.9300   24.6720   64.1790 C   0  0  0  0  0  0  0  0  0  0  0  0
   16.5370   23.3490   64.1760 N   0  0  0  0  0  0  0  0  0  0  0  0
   15.1860   23.2850   63.9250 C   0  0  0  0  0  0  0  0  0  0  0  0
   14.3840   22.0380   63.8530 C   0  0  2  0  0  0  0  0  0  0  0  0
   12.9060   22.4100   63.7270 N   0  0  0  0  0  0  0  0  0  0  0  0
   12.0540   21.2130   63.4340 C   0  0  0  0  0  0  0  0  0  0  0  0
   10.8450   21.1470   64.3740 C   0  0  1  0  0  0  0  0  0  0  0  0
   10.1040   19.8550   64.1560 C   0  0  0  0  0  0  0  0  0  0  0  0
   11.1490   21.2920   65.8430 C   0  0  0  0  0  0  0  0  0  0  0  0
    9.9960   22.1560   64.0680 F   0  0  0  0  0  0  0  0  0  0  0  0
   14.6090   21.1780   65.0860 C   0  0  0  0  0  0  0  0  0  0  0  0
   14.5760   21.7180   66.3600 C   0  0  0  0  0  0  0  0  0  0  0  0
   14.7540   20.9570   67.4970 C   0  0  0  0  0  0  0  0  0  0  0  0
   14.9800   19.6000   67.3920 C   0  0  0  0  0  0  0  0  0  0  0  0
   15.0230   19.0270   66.1370 C   0  0  0  0  0  0  0  0  0  0  0  0
   14.8350   19.8140   65.0100 C   0  0  0  0  0  0  0  0  0  0  0  0
   14.8600   19.2220   63.8270 F   0  0  0  0  0  0  0  0  0  0  0  0
   15.1810   18.7770   68.5870 C   0  0  0  0  0  0  0  0  0  0  0  0
   15.7390   19.3380   69.6680 C   0  0  0  0  0  0  0  0  0  0  0  0
   15.9260   18.4400   70.8770 C   0  0  0  0  0  0  0  0  0  0  0  0
   16.3270   19.0540   71.9090 O   0  0  0  0  0  0  0  0  0  0  0  0
   15.6710   17.2090   70.7390 O   0  0  0  0  0  0  0  0  0  0  0  0
   14.3550   23.0150   66.5280 F   0  0  0  0  0  0  0  0  0  0  0  0
  2  1  1  6
  3  2  1  0
  4  3  1  0
  5  4  1  0
  6  5  1  0
  7  6  1  0
  8  7  1  0
  9  8  1  0
 10  5  1  0
 10  9  1  0
 11 10  1  0
 12  4  1  0
 12 11  1  0
 13 12  1  0
 14 13  1  0
 14  2  1  0
 15 14  1  0
 16 15  1  0
 16 17  1  1
 18 16  1  0
 19 16  1  0
 13 20  1  1
 21 20  1  0
 22 21  1  0
 23 22  1  0
 24 23  1  0
 25 20  1  0
 25 24  1  0
 26 25  1  0
 27 23  1  0
 28 27  1  0
 29 28  1  0
 30 29  1  0
 31 29  1  0
 32 21  1  0
M  END
$$$$
8C04
     RDKit          3D

 71 72  0  0  0  0  0  0  0  0999 V2000
   12.8210    7.8360   14.2660 N   0  0  0  0  0  0  0  0  0  0  0  0
   13.7610    8.9520   14.2600 C   0  0  2  0  0  0  0  0  0  0  0  0
   13.1350   10.1760   13.6000 C   0  0  0  0  0  0  0  0  0  0  0  0
   12.3050   10.0450   12.6970 O   0  0  0  0  0  0  0  0  0  0  0  0
   15.0620    8.5630   13.5510 C   0  0  0  0  0  0  0  0  0  0  0  0
   14.8730    8.0780   12.1390 C   0  0  0  0  0  0  0  0  0  0  0  0
   14.6630    6.7310   11.8780 C   0  0  0  0  0  0  0  0  0  0  0  0
   14.9210    8.9620   11.0720 C   0  0  0  0  0  0  0  0  0  0  0  0
   14.4930    6.2770   10.5800 C   0  0  0  0  0  0  0  0  0  0  0  0
   14.7520    8.5110    9.7700 C   0  0  0  0  0  0  0  0  0  0  0  0
   14.5410    7.1680    9.5250 C   0  0  0  0  0  0  0  0  0  0  0  0
   13.9870    9.1850   15.1740 H   0  0  0  0  0  0  0  0  0  0  0  0
   15.6430    9.3390   13.5210 H   0  0  0  0  0  0  0  0  0  0  0  0
   15.4870    7.8490   14.0530 H   0  0  0  0  0  0  0  0  0  0  0  0
   14.6370    6.1250   12.5830 H   0  0  0  0  0  0  0  0  0  0  0  0
   15.0690    9.8660   11.2300 H   0  0  0  0  0  0  0  0  0  0  0  0
   14.3450    5.3730   10.4190 H   0  0  0  0  0  0  0  0  0  0  0  0
   14.7800    9.1140    9.0620 H   0  0  0  0  0  0  0  0  0  0  0  0
   14.4310    6.8640    8.6520 H   0  0  0  0  0  0  0  0  0  0  0  0
   13.5290   11.3640   14.0460 N   0  0  0  0  0  0  0  0  0  0  0  0
   12.9500   12.5880   13.4900 C   0  0  2  0  0  0  0  0  0  0  0  0
   13.5520   12.9360   12.1360 C   0  0  0  0  0  0  0  0  0  0  0  0
   14.6380   12.4920   11.7690 O   0  0  0  0  0  0  0  0  0  0  0  0
   13.3010   13.6430   14.5450 C   0  0  0  0  0  0  0  0  0  0  0  0
   14.5970   13.1570   15.1420 C   0  0  0  0  0  0  0  0  0  0  0  0
   14.5120   11.6420   15.1110 C   0  0  0  0  0  0  0  0  0  0  0  0
   11.9860   12.5160   13.4040 H   0  0  0  0  0  0  0  0  0  0  0  0
   13.4140   14.5100   14.1230 H   0  0  0  0  0  0  0  0  0  0  0  0
   12.6020   13.6890   15.2160 H   0  0  0  0  0  0  0  0  0  0  0  0
   15.3440   13.4720   14.6090 H   0  0  0  0  0  0  0  0  0  0  0  0
   14.6800   13.4800   16.0530 H   0  0  0  0  0  0  0  0  0  0  0  0
   15.3740   11.2540   14.8920 H   0  0  0  0  0  0  0  0  0  0  0  0
   14.2000   11.2980   15.9630 H   0  0  0  0  0  0  0  0  0  0  0  0
   12.8260   13.7720   11.3930 N   0  0  0  0  0  0  0  0  0  0  0  0
   13.2430   14.1740   10.0600 C   0  0  2  0  0  0  0  0  0  0  0  0
   14.3730   15.1940   10.1020 C   0  0  0  0  0  0  0  0  0  0  0  0
   14.3120   16.1530   10.8790 O   0  0  0  0  0  0  0  0  0  0  0  0
   12.0600   14.7610    9.2900 C   0  0  0  0  0  0  0  0  0  0  0  0
   12.0820   14.1210   11.6450 H   0  0  0  0  0  0  0  0  0  0  0  0
   13.5660   13.3860    9.5960 H   0  0  0  0  0  0  0  0  0  0  0  0
   12.3640   15.0450    8.4130 H   0  0  0  0  0  0  0  0  0  0  0  0
   11.3750   14.0800    9.1980 H   0  0  0  0  0  0  0  0  0  0  0  0
   11.7090   15.5200    9.7800 H   0  0  0  0  0  0  0  0  0  0  0  0
   15.3800   14.9680    9.2570 N   0  0  0  0  0  0  0  0  0  0  0  0
   16.4330   15.9420    8.9850 C   0  0  1  0  0  0  0  0  0  0  0  0
   17.7290   15.6050    9.7530 C   0  0  1  0  0  0  0  0  0  0  0  0
   17.5620   15.7460   11.2660 C   0  0  0  0  0  0  0  0  0  0  0  0
   18.0340   14.2480    9.4130 O   0  0  0  0  0  0  0  0  0  0  0  0
   19.4390   13.5800    9.8520 P   0  0  0  0  0  0  0  0  0  0  0  0
   19.5270   12.2920    8.9720 O   0  0  0  0  0  0  0  0  0  0  0  0
   19.4460   13.2480   11.3020 O   0  0  0  0  0  0  0  0  0  0  0  0
   20.5680   14.6200    9.5140 O   0  0  0  0  0  0  0  0  0  0  0  0
   16.6930   15.9620    7.4850 C   0  0  0  0  0  0  0  0  0  0  0  0
   16.3950   14.9790    6.7810 O   0  0  0  0  0  0  0  0  0  0  0  0
   17.2390   17.0570    6.9750 N   0  0  0  0  0  0  0  0  0  0  0  0
   17.5570   17.1820    5.5530 C   0  0  2  0  0  0  0  0  0  0  0  0
   18.9920   17.6170    5.3010 C   0  0  0  0  0  0  0  0  0  0  0  0
   19.7730   17.8860    6.2210 O   0  0  0  0  0  0  0  0  0  0  0  0
   16.5970   18.1530    4.8420 C   0  0  0  0  0  0  0  0  0  0  0  0
   15.1760   17.6750    4.9430 C   0  0  0  0  0  0  0  0  0  0  0  0
   16.7180   19.5660    5.4110 C   0  0  0  0  0  0  0  0  0  0  0  0
   19.4090   17.7080    4.1360 O   0  0  0  0  0  0  0  0  0  0  0  0
   17.4400   17.7540    7.4360 H   0  0  0  0  0  0  0  0  0  0  0  0
   17.4540   16.2930    5.1780 H   0  0  0  0  0  0  0  0  0  0  0  0
   16.8440   18.1820    3.9050 H   0  0  0  0  0  0  0  0  0  0  0  0
   14.6030   18.2830    4.4500 H   0  0  0  0  0  0  0  0  0  0  0  0
   15.1150   16.7840    4.5650 H   0  0  0  0  0  0  0  0  0  0  0  0
   14.9140   17.6580    5.8760 H   0  0  0  0  0  0  0  0  0  0  0  0
   16.0260   20.1240    5.0230 H   0  0  0  0  0  0  0  0  0  0  0  0
   16.6110   19.5290    6.3750 H   0  0  0  0  0  0  0  0  0  0  0  0
   17.5930   19.9220    5.1890 H   0  0  0  0  0  0  0  0  0  0  0  0
  2  1  1  0
  3  2  1  0
  4  3  2  0
  5  2  1  0
  6  5  1  0
  7  6  2  0
  8  6  1  0
  9  7  1  0
 10  8  2  0
 11 10  1  0
 11  9  2  0
  2 12  1  1
 13  5  1  0
 14  5  1  0
 15  7  1  0
 16  8  1  0
 17  9  1  0
 18 10  1  0
 19 11  1  0
 20  3  1  0
 21 20  1  0
 22 21  1  0
 23 22  2  0
 24 21  1  0
 25 24  1  0
 26 25  1  0
 26 20  1  0
 21 27  1  6
 28 24  1  0
 29 24  1  0
 30 25  1  0
 31 25  1  0
 32 26  1  0
 33 26  1  0
 34 22  1  0
 35 34  1  0
 36 35  1  0
 37 36  2  0
 38 35  1  0
 39 34  1  0
 35 40  1  6
 41 38  1  0
 42 38  1  0
 43 38  1  0
 44 36  1  0
 45 44  1  6
 46 45  1  0
 46 47  1  1
 48 46  1  0
 49 48  1  0
 50 49  1  0
 51 49  1  0
 52 49  1  0
 53 45  1  0
 54 53  1  0
 55 53  1  0
 56 55  1  0
 57 56  1  0
 58 57  2  0
 59 56  1  0
 60 59  1  0
 61 59  1  0
 62 57  1  0
 63 55  1  0
 56 64  1  6
 65 59  1  0
 66 60  1  0
 67 60  1  0
 68 60  1  0
 69 61  1  0
 70 61  1  0
 71 61  1  0
M  END
$$$$
9I73
     RDKit          3D

 42 43  0  0  0  0  0  0  0  0999 V2000
  -12.8620   -8.0290   14.6020 N   0  0  0  0  0  0  0  0  0  0  0  0
  -13.7410   -9.2040   14.6270 C   0  0  2  0  0  0  0  0  0  0  0  0
  -13.0710  -10.4310   14.0180 C   0  0  0  0  0  0  0  0  0  0  0  0
  -12.2060  -10.3060   13.1550 O   0  0  0  0  0  0  0  0  0  0  0  0
  -15.0700   -8.9050   13.8980 C   0  0  0  0  0  0  0  0  0  0  0  0
  -14.9730   -8.2820   12.5260 C   0  0  0  0  0  0  0  0  0  0  0  0
  -14.7740   -9.0650   11.4010 C   0  0  0  0  0  0  0  0  0  0  0  0
  -15.0840   -6.9130   12.3590 C   0  0  0  0  0  0  0  0  0  0  0  0
  -14.6860   -8.4870   10.1360 C   0  0  0  0  0  0  0  0  0  0  0  0
  -14.9900   -6.3350   11.0900 C   0  0  0  0  0  0  0  0  0  0  0  0
  -14.8000   -7.1270    9.9880 C   0  0  0  0  0  0  0  0  0  0  0  0
  -13.4420  -11.6570   14.4500 N   0  0  0  0  0  0  0  0  0  0  0  0
  -12.8840  -12.8590   13.8570 C   0  0  2  0  0  0  0  0  0  0  0  0
  -13.4710  -13.1740   12.4850 C   0  0  0  0  0  0  0  0  0  0  0  0
  -14.5480  -12.6940   12.1280 O   0  0  0  0  0  0  0  0  0  0  0  0
  -13.2360  -13.9020   14.8880 C   0  0  0  0  0  0  0  0  0  0  0  0
  -14.5400  -13.4600   15.4290 C   0  0  0  0  0  0  0  0  0  0  0  0
  -14.4530  -11.9550   15.4810 C   0  0  0  0  0  0  0  0  0  0  0  0
  -12.7670  -14.0110   11.7370 N   0  0  0  0  0  0  0  0  0  0  0  0
  -13.1670  -14.3810   10.3940 C   0  0  2  0  0  0  0  0  0  0  0  0
  -14.3080  -15.3960   10.3880 C   0  0  0  0  0  0  0  0  0  0  0  0
  -14.2580  -16.3920   11.1020 O   0  0  0  0  0  0  0  0  0  0  0  0
  -11.9880  -14.9870    9.6540 C   0  0  0  0  0  0  0  0  0  0  0  0
  -15.2950  -15.1400    9.5220 N   0  0  0  0  0  0  0  0  0  0  0  0
  -16.3500  -16.0760    9.1980 C   0  0  1  0  0  0  0  0  0  0  0  0
  -17.6650  -15.7570    9.9300 C   0  0  1  0  0  0  0  0  0  0  0  0
  -17.5280  -15.9170   11.4310 C   0  0  0  0  0  0  0  0  0  0  0  0
  -18.0000  -14.3700    9.5900 O   0  0  0  0  0  0  0  0  0  0  0  0
  -19.4160  -13.7140    9.9690 P   0  0  0  0  0  0  0  0  0  0  0  0
  -19.4260  -13.3740   11.4430 O   0  0  0  0  0  0  0  0  0  0  0  0
  -19.4800  -12.5060    9.0690 O   0  0  0  0  0  0  0  0  0  0  0  0
  -20.4870  -14.7300    9.6440 O   0  0  0  0  0  0  0  0  0  0  0  0
  -16.5460  -16.0630    7.6890 C   0  0  0  0  0  0  0  0  0  0  0  0
  -16.1320  -15.1200    7.0210 O   0  0  0  0  0  0  0  0  0  0  0  0
  -17.1550  -17.1250    7.1650 N   0  0  0  0  0  0  0  0  0  0  0  0
  -17.4210  -17.2220    5.7410 C   0  0  2  0  0  0  0  0  0  0  0  0
  -18.8660  -17.5280    5.4300 C   0  0  0  0  0  0  0  0  0  0  0  0
  -19.6470  -17.8890    6.3210 O   0  0  0  0  0  0  0  0  0  0  0  0
  -16.5280  -18.2850    5.0650 C   0  0  0  0  0  0  0  0  0  0  0  0
  -15.0750  -17.9040    5.2030 C   0  0  0  0  0  0  0  0  0  0  0  0
  -16.7980  -19.6920    5.6110 C   0  0  0  0  0  0  0  0  0  0  0  0
  -19.2440  -17.4290    4.2360 O   0  0  0  0  0  0  0  0  0  0  0  0
  2  1  1  6
  3  2  1  0
  4  3  2  0
  5  2  1  0
  6  5  1  0
  7  6  2  0
  8  6  1  0
  9  7  1  0
 10  8  2  0
 11  9  2  0
 11 10  1  0
 12  3  1  0
 13 12  1  0
 13 14  1  6
 15 14  2  0
 16 13  1  0
 17 16  1  0
 18 17  1  0
 18 12  1  0
 19 14  1  0
 20 19  1  0
 21 20  1  0
 22 21  2  0
 20 23  1  1
 24 21  1  0
 25 24  1  6
 26 25  1  0
 26 27  1  1
 28 26  1  0
 29 28  1  0
 30 29  1  0
 31 29  1  0
 32 29  1  0
 33 25  1  0
 34 33  1  0
 35 33  1  0
 36 35  1  1
 37 36  1  0
 38 37  2  0
 39 36  1  0
 40 39  1  0
 41 39  1  0
 42 37  1  0
M  END
$$$$
9I6V
     RDKit          3D

 42 43  0  0  0  0  0  0  0  0999 V2000
   28.6190   -8.1210   14.8570 N   0  0  0  0  0  0  0  0  0  0  0  0
   27.6670   -9.2430   14.7750 C   0  0  2  0  0  0  0  0  0  0  0  0
   28.3090  -10.4690   14.1240 C   0  0  0  0  0  0  0  0  0  0  0  0
   29.1580  -10.3460   13.2430 O   0  0  0  0  0  0  0  0  0  0  0  0
   26.4080   -8.8100   14.0010 C   0  0  0  0  0  0  0  0  0  0  0  0
   25.6790   -7.6690   14.6760 C   0  0  0  0  0  0  0  0  0  0  0  0
   24.8190   -7.9040   15.7350 C   0  0  0  0  0  0  0  0  0  0  0  0
   25.8930   -6.3590   14.2810 C   0  0  0  0  0  0  0  0  0  0  0  0
   24.1650   -6.8530   16.3650 C   0  0  0  0  0  0  0  0  0  0  0  0
   25.2350   -5.3130   14.9100 C   0  0  0  0  0  0  0  0  0  0  0  0
   24.3820   -5.5640   15.9520 C   0  0  0  0  0  0  0  0  0  0  0  0
   27.9400  -11.7070   14.5370 N   0  0  0  0  0  0  0  0  0  0  0  0
   28.5170  -12.9050   13.9320 C   0  0  2  0  0  0  0  0  0  0  0  0
   27.9500  -13.2180   12.5480 C   0  0  0  0  0  0  0  0  0  0  0  0
   26.8800  -12.7300   12.1820 O   0  0  0  0  0  0  0  0  0  0  0  0
   28.1610  -13.9590   14.9590 C   0  0  0  0  0  0  0  0  0  0  0  0
   26.8280  -13.5170   15.4880 C   0  0  0  0  0  0  0  0  0  0  0  0
   26.9590  -12.0170   15.5930 C   0  0  0  0  0  0  0  0  0  0  0  0
   28.6660  -14.0500   11.7930 N   0  0  0  0  0  0  0  0  0  0  0  0
   28.2680  -14.4120   10.4450 C   0  0  2  0  0  0  0  0  0  0  0  0
   27.1280  -15.4330   10.4410 C   0  0  0  0  0  0  0  0  0  0  0  0
   27.1810  -16.4240   11.1670 O   0  0  0  0  0  0  0  0  0  0  0  0
   29.4470  -15.0050    9.6910 C   0  0  0  0  0  0  0  0  0  0  0  0
   26.1230  -15.1780    9.5980 N   0  0  0  0  0  0  0  0  0  0  0  0
   25.0650  -16.1090    9.2480 C   0  0  1  0  0  0  0  0  0  0  0  0
   23.7510  -15.8000    9.9830 C   0  0  1  0  0  0  0  0  0  0  0  0
   23.8920  -15.9780   11.4850 C   0  0  0  0  0  0  0  0  0  0  0  0
   23.4050  -14.3950    9.6540 O   0  0  0  0  0  0  0  0  0  0  0  0
   21.9650  -13.7530    9.9990 P   0  0  0  0  0  0  0  0  0  0  0  0
   21.9500  -13.4020   11.4690 O   0  0  0  0  0  0  0  0  0  0  0  0
   21.9000  -12.5270    9.0960 O   0  0  0  0  0  0  0  0  0  0  0  0
   20.9090  -14.7940    9.6780 O   0  0  0  0  0  0  0  0  0  0  0  0
   24.8700  -16.0930    7.7370 C   0  0  0  0  0  0  0  0  0  0  0  0
   25.2720  -15.1370    7.0740 O   0  0  0  0  0  0  0  0  0  0  0  0
   24.2540  -17.1470    7.2030 N   0  0  0  0  0  0  0  0  0  0  0  0
   23.9660  -17.2350    5.7850 C   0  0  2  0  0  0  0  0  0  0  0  0
   22.5120  -17.4810    5.4720 C   0  0  0  0  0  0  0  0  0  0  0  0
   21.7270  -17.8970    6.3550 O   0  0  0  0  0  0  0  0  0  0  0  0
   24.8080  -18.3120    5.1030 C   0  0  0  0  0  0  0  0  0  0  0  0
   26.3000  -17.9720    5.1940 C   0  0  0  0  0  0  0  0  0  0  0  0
   24.5160  -19.7090    5.6780 C   0  0  0  0  0  0  0  0  0  0  0  0
   22.1200  -17.2480    4.3110 O   0  0  0  0  0  0  0  0  0  0  0  0
  2  1  1  6
  3  2  1  0
  4  3  2  0
  5  2  1  0
  6  5  1  0
  7  6  2  0
  8  6  1  0
  9  7  1  0
 10  8  2  0
 11  9  2  0
 11 10  1  0
 12  3  1  0
 13 12  1  0
 13 14  1  6
 15 14  2  0
 16 13  1  0
 17 16  1  0
 18 17  1  0
 18 12  1  0
 19 14  1  0
 20 19  1  0
 21 20  1  0
 22 21  2  0
 20 23  1  1
 24 21  1  0
 25 24  1  6
 26 25  1  0
 26 27  1  1
 28 26  1  0
 29 28  1  0
 30 29  1  0
 31 29  1  0
 32 29  1  0
 33 25  1  0
 34 33  1  0
 35 33  1  0
 36 35  1  1
 37 36  1  0
 38 37  2  0
 39 36  1  0
 40 39  1  0
 41 39  1  0
 42 37  1  0
M  END
$$$$
8AR4
     RDKit          3D

 42 43  0  0  0  0  0  0  0  0999 V2000
   28.0300   -7.9070   14.6120 N   0  0  0  0  0  0  0  0  0  0  0  0
   27.1190   -9.0870   14.5200 C   0  0  2  0  0  0  0  0  0  0  0  0
   27.8220  -10.2860   13.8860 C   0  0  0  0  0  0  0  0  0  0  0  0
   28.7080  -10.1160   13.0460 O   0  0  0  0  0  0  0  0  0  0  0  0
   25.8420   -8.7400   13.7400 C   0  0  0  0  0  0  0  0  0  0  0  0
   26.0900   -8.1110   12.3940 C   0  0  0  0  0  0  0  0  0  0  0  0
   26.2400   -6.7320   12.2710 C   0  0  0  0  0  0  0  0  0  0  0  0
   26.1580   -8.8910   11.2460 C   0  0  0  0  0  0  0  0  0  0  0  0
   26.4670   -6.1460   11.0330 C   0  0  0  0  0  0  0  0  0  0  0  0
   26.3820   -8.3100   10.0050 C   0  0  0  0  0  0  0  0  0  0  0  0
   26.5350   -6.9370    9.8980 C   0  0  0  0  0  0  0  0  0  0  0  0
   27.4670  -11.5320   14.2840 N   0  0  0  0  0  0  0  0  0  0  0  0
   28.0730  -12.7260   13.6980 C   0  0  2  0  0  0  0  0  0  0  0  0
   27.5050  -13.0490   12.3090 C   0  0  0  0  0  0  0  0  0  0  0  0
   26.4500  -12.5770   11.9530 O   0  0  0  0  0  0  0  0  0  0  0  0
   27.7270  -13.8130   14.7250 C   0  0  0  0  0  0  0  0  0  0  0  0
   26.3790  -13.3770   15.2590 C   0  0  0  0  0  0  0  0  0  0  0  0
   26.4730  -11.8650   15.3190 C   0  0  0  0  0  0  0  0  0  0  0  0
   28.2270  -13.8660   11.5390 N   0  0  0  0  0  0  0  0  0  0  0  0
   27.8030  -14.2550   10.2180 C   0  0  2  0  0  0  0  0  0  0  0  0
   26.6890  -15.2900   10.2180 C   0  0  0  0  0  0  0  0  0  0  0  0
   26.7290  -16.2670   10.9640 O   0  0  0  0  0  0  0  0  0  0  0  0
   28.9800  -14.8060    9.4370 C   0  0  0  0  0  0  0  0  0  0  0  0
   25.6910  -15.0500    9.3740 N   0  0  0  0  0  0  0  0  0  0  0  0
   24.6110  -16.0090    9.0530 C   0  0  1  0  0  0  0  0  0  0  0  0
   23.3060  -15.6900    9.7980 C   0  0  1  0  0  0  0  0  0  0  0  0
   23.4410  -15.8510   11.2990 C   0  0  0  0  0  0  0  0  0  0  0  0
   22.9810  -14.2960    9.4670 O   0  0  0  0  0  0  0  0  0  0  0  0
   21.5600  -13.6420    9.8900 P   0  0  0  0  0  0  0  0  0  0  0  0
   21.5190  -12.4240    8.9590 O   0  0  0  0  0  0  0  0  0  0  0  0
   21.5750  -13.3010   11.3570 O   0  0  0  0  0  0  0  0  0  0  0  0
   20.5320  -14.6740    9.5570 O   0  0  0  0  0  0  0  0  0  0  0  0
   24.3810  -16.0160    7.5430 C   0  0  2  0  0  0  0  0  0  0  0  0
   24.7220  -15.0000    6.9040 O   0  0  0  0  0  0  0  0  0  0  0  0
   23.7380  -17.0510    7.0110 N   0  0  0  0  0  0  0  0  0  0  0  0
   23.4720  -17.1120    5.5780 C   0  0  2  0  0  0  0  0  0  0  0  0
   22.0340  -17.4290    5.3090 C   0  0  0  0  0  0  0  0  0  0  0  0
   21.2630  -17.8130    6.2230 O   0  0  0  0  0  0  0  0  0  0  0  0
   24.3290  -18.1840    4.8900 C   0  0  0  0  0  0  0  0  0  0  0  0
   25.7920  -17.8220    5.0470 C   0  0  0  0  0  0  0  0  0  0  0  0
   24.0100  -19.5810    5.4350 C   0  0  0  0  0  0  0  0  0  0  0  0
   21.5850  -17.3140    4.1580 O   0  0  0  0  0  0  0  0  0  0  0  0
  2  1  1  6
  3  2  1  0
  4  3  2  0
  5  2  1  0
  6  5  1  0
  7  6  2  0
  8  6  1  0
  9  7  1  0
 10  8  2  0
 11 10  1  0
 11  9  2  0
 12  3  1  0
 13 12  1  0
 13 14  1  6
 15 14  2  0
 16 13  1  0
 17 16  1  0
 18 17  1  0
 18 12  1  0
 19 14  1  0
 20 19  1  0
 21 20  1  0
 22 21  2  0
 20 23  1  6
 24 21  1  0
 25 24  1  6
 26 25  1  0
 26 27  1  1
 28 26  1  0
 29 28  1  0
 30 29  1  0
 31 29  1  0
 32 29  1  0
 33 25  1  0
 33 34  1  1
 35 33  1  0
 36 35  1  1
 37 36  1  0
 38 37  2  0
 39 36  1  0
 40 39  1  0
 41 39  1  0
 42 37  1  0
M  END
$$$$
5DP0
     RDKit          3D

 75 75  0  0  0  0  0  0  0  0999 V2000
  -10.6660   -3.0480    6.6130 N   0  0  0  0  0  0  0  0  0  0  0  0
  -10.6780   -1.6130    6.3490 C   0  0  2  0  0  0  0  0  0  0  0  0
  -11.5840   -0.8840    7.3370 C   0  0  0  0  0  0  0  0  0  0  0  0
  -12.7620   -1.2140    7.4670 O   0  0  0  0  0  0  0  0  0  0  0  0
  -11.1300   -1.3360    4.9140 C   0  0  0  0  0  0  0  0  0  0  0  0
  -11.0260    0.1000    8.0340 N   0  0  0  0  0  0  0  0  0  0  0  0
  -11.7900    0.8940    8.9930 C   0  0  2  0  0  0  0  0  0  0  0  0
  -12.9940    1.5540    8.3260 C   0  0  0  0  0  0  0  0  0  0  0  0
  -14.1000    1.5440    8.8680 O   0  0  0  0  0  0  0  0  0  0  0  0
  -10.9220    1.9870    9.6470 C   0  0  2  0  0  0  0  0  0  0  0  0
   -9.6610    1.3740   10.2640 C   0  0  0  0  0  0  0  0  0  0  0  0
  -11.7230    2.7440   10.6960 C   0  0  0  0  0  0  0  0  0  0  0  0
   -8.7660    2.3820   10.9670 C   0  0  0  0  0  0  0  0  0  0  0  0
  -12.7640    2.1100    7.1400 N   0  0  0  0  0  0  0  0  0  0  0  0
  -13.8070    2.7920    6.3810 C   0  0  2  0  0  0  0  0  0  0  0  0
  -14.9810    1.8690    6.0670 C   0  0  0  0  0  0  0  0  0  0  0  0
  -16.1430    2.2650    6.1730 O   0  0  0  0  0  0  0  0  0  0  0  0
  -13.2310    3.3640    5.0830 C   0  0  0  0  0  0  0  0  0  0  0  0
  -14.2210    4.1300    4.2030 C   0  0  0  0  0  0  0  0  0  0  0  0
  -14.9350    5.1970    5.0100 C   0  0  0  0  0  0  0  0  0  0  0  0
  -13.5160    4.7490    3.0010 C   0  0  0  0  0  0  0  0  0  0  0  0
  -14.6680    0.6370    5.6850 N   0  0  0  0  0  0  0  0  0  0  0  0
  -15.6930   -0.3450    5.3560 C   0  0  2  0  0  0  0  0  0  0  0  0
  -16.5350   -0.6900    6.5790 C   0  0  0  0  0  0  0  0  0  0  0  0
  -17.7510   -0.8610    6.4800 O   0  0  0  0  0  0  0  0  0  0  0  0
  -15.0520   -1.6060    4.7830 C   0  0  0  0  0  0  0  0  0  0  0  0
  -16.0400   -2.6180    4.2990 C   0  0  0  0  0  0  0  0  0  0  0  0
  -16.6150   -3.5530    5.1310 N   0  0  0  0  0  0  0  0  0  0  0  0
  -16.5560   -2.8420    3.0670 C   0  0  0  0  0  0  0  0  0  0  0  0
  -17.4430   -4.3100    4.4340 C   0  0  0  0  0  0  0  0  0  0  0  0
  -17.4250   -3.9000    3.1790 N   0  0  0  0  0  0  0  0  0  0  0  0
  -15.8740   -0.7790    7.7300 N   0  0  0  0  0  0  0  0  0  0  0  0
  -16.5300   -1.1160    8.9870 C   0  0  2  0  0  0  0  0  0  0  0  0
  -17.5490   -0.0510    9.3720 C   0  0  0  0  0  0  0  0  0  0  0  0
  -18.6930   -0.3610    9.7020 O   0  0  0  0  0  0  0  0  0  0  0  0
  -15.4890   -1.2840   10.1000 C   0  0  0  0  0  0  0  0  0  0  0  0
  -15.9810   -2.0190   11.3470 C   0  0  0  0  0  0  0  0  0  0  0  0
  -16.5930   -1.0780   12.3860 C   0  0  0  0  0  0  0  0  0  0  0  0
  -15.6740   -0.0150   12.7890 N   0  0  0  0  0  0  0  0  0  0  0  0
  -14.7390   -0.1430   13.7270 C   0  0  0  0  0  0  0  0  0  0  0  0
  -13.9510    0.8810   14.0260 N   0  0  0  0  0  0  0  0  0  0  0  0
  -14.5900   -1.2950   14.3660 N   0  0  0  0  0  0  0  0  0  0  0  0
  -17.1110    1.1860    9.3380 N   0  0  0  0  0  0  0  0  0  0  0  0
  -17.9290    2.2980    9.7070 C   0  0  2  0  0  0  0  0  0  0  0  0
  -19.1030    2.5090    8.8160 C   0  0  0  0  0  0  0  0  0  0  0  0
  -20.0790    3.0620    9.2240 O   0  0  0  0  0  0  0  0  0  0  0  0
  -17.0730    3.5430    9.7390 C   0  0  0  0  0  0  0  0  0  0  0  0
  -16.1660    3.5440   10.9460 C   0  0  0  0  0  0  0  0  0  0  0  0
  -15.1290    4.6420   10.9260 C   0  0  0  0  0  0  0  0  0  0  0  0
  -17.0660    3.7250   12.1280 C   0  0  0  0  0  0  0  0  0  0  0  0
  -19.0200    2.0440    7.5960 N   0  0  0  0  0  0  0  0  0  0  0  0
  -20.0850    2.2390    6.6500 C   0  0  2  0  0  0  0  0  0  0  0  0
  -21.2090    1.2630    6.8630 C   0  0  0  0  0  0  0  0  0  0  0  0
  -22.2890    1.4460    6.3440 O   0  0  0  0  0  0  0  0  0  0  0  0
  -19.5580    2.1100    5.2330 C   0  0  0  0  0  0  0  0  0  0  0  0
  -18.9690    3.3530    4.6170 C   0  0  0  0  0  0  0  0  0  0  0  0
  -18.0130    3.0250    3.5010 C   0  0  0  0  0  0  0  0  0  0  0  0
  -20.0980    4.1950    4.0950 C   0  0  0  0  0  0  0  0  0  0  0  0
  -20.9380    0.2080    7.6130 N   0  0  0  0  0  0  0  0  0  0  0  0
  -21.9970   -0.6730    8.0950 C   0  0  2  0  0  0  0  0  0  0  0  0
  -22.1010   -0.6310    9.5950 C   0  0  0  0  0  0  0  0  0  0  0  0
  -21.1820   -0.9850   10.2830 O   0  0  0  0  0  0  0  0  0  0  0  0
  -21.8290   -2.1050    7.5830 C   0  0  0  0  0  0  0  0  0  0  0  0
  -20.4520   -2.7190    7.7190 C   0  0  0  0  0  0  0  0  0  0  0  0
  -20.3420   -4.0920    7.0860 C   0  0  0  0  0  0  0  0  0  0  0  0
  -21.1130   -4.4510    6.2120 O   0  0  0  0  0  0  0  0  0  0  0  0
  -19.3710   -4.8670    7.5350 N   0  0  0  0  0  0  0  0  0  0  0  0
  -23.2280   -0.1570   10.0870 N   0  0  0  0  0  0  0  0  0  0  0  0
  -23.3040    0.6090   11.3190 C   0  0  2  0  0  0  0  0  0  0  0  0
  -22.4290    0.0540   12.4370 C   0  0  0  0  0  0  0  0  0  0  0  0
  -21.4440    0.6580   12.8430 O   0  0  0  0  0  0  0  0  0  0  0  0
  -24.7500    0.6510   11.7830 C   0  0  0  0  0  0  0  0  0  0  0  0
  -25.4530   -0.6640   11.5780 C   0  0  0  0  0  0  0  0  0  0  0  0
  -26.6290   -0.6810   11.1980 O   0  0  0  0  0  0  0  0  0  0  0  0
  -24.8240   -1.7030   11.7690 O   0  0  0  0  0  0  0  0  0  0  0  0
  2  1  1  0
  3  2  1  0
  4  3  2  0
  2  5  1  6
  6  3  1  0
  7  6  1  6
  8  7  1  0
  9  8  2  0
 10  7  1  0
 11 10  1  0
 10 12  1  1
 13 11  1  0
 14  8  1  0
 15 14  1  0
 16 15  1  0
 17 16  2  0
 15 18  1  6
 19 18  1  0
 20 19  1  0
 21 19  1  0
 22 16  1  0
 23 22  1  0
 24 23  1  0
 25 24  2  0
 23 26  1  1
 27 26  1  0
 28 27  1  0
 29 27  2  0
 30 28  2  0
 31 30  1  0
 31 29  1  0
 32 24  1  0
 33 32  1  0
 34 33  1  0
 35 34  2  0
 33 36  1  1
 37 36  1  0
 38 37  1  0
 39 38  1  0
 40 39  1  0
 41 40  1  0
 42 40  2  0
 43 34  1  0
 44 43  1  0
 45 44  1  0
 46 45  2  0
 44 47  1  6
 48 47  1  0
 49 48  1  0
 50 48  1  0
 51 45  1  0
 52 51  1  0
 53 52  1  0
 54 53  2  0
 52 55  1  6
 56 55  1  0
 57 56  1  0
 58 56  1  0
 59 53  1  0
 60 59  1  0
 61 60  1  0
 62 61  2  0
 60 63  1  1
 64 63  1  0
 65 64  1  0
 66 65  2  0
 67 65  1  0
 68 61  1  0
 69 68  1  0
 70 69  1  0
 71 70  2  0
 69 72  1  1
 73 72  1  0
 74 73  2  0
 75 73  1  0
M  END
$$$$
9B2B
     RDKit          3D

 38 44  0  0  0  0  0  0  0  0999 V2000
   15.1890  -16.7180   60.6850 N   0  0  0  0  0  0  0  0  0  0  0  0
   11.4690  -18.2130   59.8930 C   0  0  0  0  0  0  0  0  0  0  0  0
   12.1640  -17.1200   60.0770 C   0  0  0  0  0  0  0  0  0  0  0  0
   11.9550  -16.3710   61.3900 C   0  0  0  0  0  0  0  0  0  0  0  0
   13.2170  -16.6180   59.0090 C   0  0  2  0  0  0  0  0  0  0  0  0
   13.2070  -15.1160   58.8450 C   0  0  0  0  0  0  0  0  0  0  0  0
   13.4860  -16.2500   56.6330 C   0  0  0  0  0  0  0  0  0  0  0  0
   15.9150  -15.4690   60.8840 C   0  0  0  0  0  0  0  0  0  0  0  0
   17.4420  -15.6820   61.0760 C   0  0  0  0  0  0  0  0  0  0  0  0
   19.4980  -17.0770   61.0830 C   0  0  0  0  0  0  0  0  0  0  0  0
   18.3010  -14.5130   61.4640 C   0  0  0  0  0  0  0  0  0  0  0  0
   14.3660  -18.7310   61.7610 C   0  0  0  0  0  0  0  0  0  0  0  0
   14.1470  -19.5600   63.0200 C   0  0  0  0  0  0  0  0  0  0  0  0
   15.1210  -17.7440   64.3240 C   0  0  0  0  0  0  0  0  0  0  0  0
   15.4110  -20.2980   66.2150 C   0  0  1  0  0  0  0  0  0  0  0  0
   15.4600  -19.7490   67.4990 C   0  0  0  0  0  0  0  0  0  0  0  0
   11.0910  -16.7980   62.2760 C   0  0  0  0  0  0  0  0  0  0  0  0
   10.3030  -18.0440   62.0420 C   0  0  0  0  0  0  0  0  0  0  0  0
   10.4620  -18.6950   60.9230 C   0  0  0  0  0  0  0  0  0  0  0  0
   13.5750  -14.8970   57.3700 C   0  0  0  0  0  0  0  0  0  0  0  0
   12.8410  -17.1950   57.6580 C   0  0  0  0  0  0  0  0  0  0  0  0
   14.7210  -17.0650   59.3300 C   0  0  0  0  0  0  0  0  0  0  0  0
   14.9310  -17.5670   61.8470 C   0  0  0  0  0  0  0  0  0  0  0  0
   18.0000  -16.8420   60.9020 C   0  0  0  0  0  0  0  0  0  0  0  0
   20.2360  -16.0770   61.4030 C   0  0  0  0  0  0  0  0  0  0  0  0
   19.5960  -14.7300   61.5940 C   0  0  0  0  0  0  0  0  0  0  0  0
   17.5980  -12.9050   61.6810 Cl  0  0  0  0  0  0  0  0  0  0  0  0
   20.4380  -13.7440   61.9110 O   0  0  0  0  0  0  0  0  0  0  0  0
   14.5030  -19.1130   64.2280 C   0  0  1  0  0  0  0  0  0  0  0  0
   15.3180  -17.0530   63.2370 C   0  0  0  0  0  0  0  0  0  0  0  0
   14.2610  -19.8430   65.4050 O   0  0  0  0  0  0  0  0  0  0  0  0
   15.0450  -21.5420   66.6470 C   0  0  1  0  0  0  0  0  0  0  0  0
   15.6680  -21.0690   67.7470 N   0  0  2  0  0  0  0  0  0  0  0  0
   15.0930  -21.4620   68.5930 C   0  0  1  0  0  0  0  0  0  0  0  0
   15.3950  -20.7710   69.9280 C   0  0  0  0  0  0  0  0  0  0  0  0
   15.9700  -21.7510   70.9490 C   0  0  0  0  0  0  0  0  0  0  0  0
   17.0420  -21.1460   71.5190 F   0  0  0  0  0  0  0  0  0  0  0  0
   12.6290  -15.2740   61.6620 F   0  0  0  0  0  0  0  0  0  0  0  0
  3  2  1  0
  4  3  1  0
  5  3  1  0
  6  5  1  0
  8  1  1  0
  9  8  1  0
 11  9  1  0
 13 12  1  0
 16 15  1  0
 17  4  1  0
 18 17  1  0
 19 18  1  0
 19  2  1  0
 20  7  1  0
 20  6  1  0
 21  5  1  0
 21  7  1  0
  5 22  1  1
 22  1  1  0
 23 12  1  0
 23  1  1  0
 24 10  1  0
 24  9  1  0
 25 10  1  0
 26 25  1  0
 26 11  1  0
 27 11  1  0
 28 26  1  0
 29 14  1  0
 29 13  1  0
 30 23  1  0
 30 14  1  0
 29 31  1  1
 15 31  1  6
 32 15  1  0
 33 32  1  0
 33 16  1  6
 33 15  1  0
 34 33  1  0
 32 34  1  1
 34 35  1  6
 36 35  1  0
 37 36  1  0
 38  4  1  0
M  CHG  1  33   1
M  END
$$$$
7R62
     RDKit          3D

 37 40  0  0  0  0  0  0  0  0999 V2000
  -34.4390    8.7430   14.2900 N   0  0  0  0  0  0  0  0  0  0  0  0
  -27.5300    2.0230   26.6980 C   0  0  0  0  0  0  0  0  0  0  0  0
  -28.8260    1.6220   26.8700 C   0  0  2  0  0  0  0  0  0  0  0  0
  -29.1570    0.1940   27.0480 C   0  0  0  0  0  0  0  0  0  0  0  0
  -29.9990    2.7550   26.7890 C   0  0  0  0  0  0  0  0  0  0  0  0
  -31.4270    2.1520   26.6460 C   0  0  1  0  0  0  0  0  0  0  0  0
  -30.5630   -0.1720   27.1310 C   0  0  1  0  0  0  0  0  0  0  0  0
  -32.3600   -2.0190   28.0270 C   0  0  0  0  0  0  0  0  0  0  0  0
  -34.0440    1.3840   27.9190 C   0  0  0  0  0  0  0  0  0  0  0  0
  -34.6540   -1.0590   28.2640 C   0  0  2  0  0  0  0  0  0  0  0  0
  -32.0250    3.0430   24.3570 C   0  0  0  0  0  0  0  0  0  0  0  0
  -32.1610    2.7870   22.8410 C   0  0  0  0  0  0  0  0  0  0  0  0
  -32.5030    4.0070   22.0290 C   0  0  0  0  0  0  0  0  0  0  0  0
  -32.7000    4.9010   19.7060 C   0  0  0  0  0  0  0  0  0  0  0  0
  -32.9400    5.6270   17.3340 C   0  0  0  0  0  0  0  0  0  0  0  0
  -32.7500    7.4150   15.6450 C   0  0  0  0  0  0  0  0  0  0  0  0
  -28.1040   -0.7090   27.1310 C   0  0  0  0  0  0  0  0  0  0  0  0
  -33.0460    0.5210   27.5420 C   0  0  2  0  0  0  0  0  0  0  0  0
  -33.3040   -0.9180   28.4660 C   0  0  2  0  0  0  0  0  0  0  0  0
  -30.7760   -1.5940   28.0420 C   0  0  0  0  0  0  0  0  0  0  0  0
  -35.3560    0.4520   28.2320 C   0  0  0  0  0  0  0  0  0  0  0  0
  -32.9610   -0.5780   29.9330 C   0  0  0  0  0  0  0  0  0  0  0  0
  -31.5550    1.8080   25.1370 C   0  0  0  0  0  0  0  0  0  0  0  0
  -26.7440   -0.3390   27.0050 C   0  0  0  0  0  0  0  0  0  0  0  0
  -32.3950    3.6610   20.5360 C   0  0  0  0  0  0  0  0  0  0  0  0
  -32.0750    4.8540   18.3130 C   0  0  0  0  0  0  0  0  0  0  0  0
  -32.3910    7.0160   17.0650 C   0  0  0  0  0  0  0  0  0  0  0  0
  -33.6210    8.6500   15.4880 C   0  0  0  0  0  0  0  0  0  0  0  0
  -26.4880    1.0840   26.7810 C   0  0  0  0  0  0  0  0  0  0  0  0
  -35.2960    9.8950   14.0660 C   0  0  0  0  0  0  0  0  0  0  0  0
  -34.3990    7.6590   13.3190 C   0  0  0  0  0  0  0  0  0  0  0  0
  -34.1420    8.1690   11.9010 C   0  0  0  0  0  0  0  0  0  0  0  0
  -34.9140    7.3530   10.8700 C   0  0  0  0  0  0  0  0  0  0  0  0
  -31.5610    0.9840   27.5720 C   0  0  2  0  0  0  0  0  0  0  0  0
  -25.1510    1.4210   26.6520 O   0  0  0  0  0  0  0  0  0  0  0  0
  -35.3710   -1.8010   29.2610 O   0  0  0  0  0  0  0  0  0  0  0  0
  -33.6160    9.5010   16.3140 O   0  0  0  0  0  0  0  0  0  0  0  0
  3  2  1  6
  4  3  1  0
  5  3  1  0
  6  5  1  0
  7  4  1  0
 12 11  1  0
 13 12  1  0
 17  4  1  0
 18  9  1  1
 19 18  1  0
 19 10  1  0
 19  8  1  0
  7 20  1  1
 20  8  1  0
 21 10  1  0
 21  9  1  0
 19 22  1  1
 23 11  1  0
  6 23  1  6
 24 17  1  0
 25 14  1  0
 25 13  1  0
 26 14  1  0
 26 15  1  0
 27 16  1  0
 27 15  1  0
 28 16  1  0
 28  1  1  0
 29  2  1  0
 29 24  1  0
 30  1  1  0
 31  1  1  0
 32 31  1  0
 33 32  1  0
 34 18  1  0
 34  7  1  0
 34  6  1  6
 35 29  1  0
 10 36  1  1
 37 28  1  0
M  END
$$$$
5DID
     RDKit          3D

 20 22  0  0  0  0  0  0  0  0999 V2000
   -5.8590   -3.4930   19.9170 C   0  0  0  0  0  0  0  0  0  0  0  0
   -6.6420   -3.7910   18.6220 C   0  0  2  0  0  0  0  0  0  0  0  0
   -7.2220   -5.2220   18.5550 C   0  0  2  0  0  0  0  0  0  0  0  0
   -6.2600   -6.3070   19.0760 C   0  0  0  0  0  0  0  0  0  0  0  0
   -5.6480   -5.9760   20.4390 C   0  0  0  0  0  0  0  0  0  0  0  0
   -5.7330   -3.7020   17.3750 C   0  0  0  0  0  0  0  0  0  0  0  0
   -6.2610   -4.7540   16.3790 C   0  0  0  0  0  0  0  0  0  0  0  0
   -7.5000   -5.3440   17.0530 C   0  0  2  0  0  0  0  0  0  0  0  0
   -8.6640   -4.6570   16.6720 O   0  0  0  0  0  0  0  0  0  0  0  0
   -8.5260   -5.3000   19.3890 C   0  0  0  0  0  0  0  0  0  0  0  0
   -2.1770   -3.6150   25.2600 O   0  0  0  0  0  0  0  0  0  0  0  0
   -2.1760   -4.7110   20.7660 F   0  0  0  0  0  0  0  0  0  0  0  0
   -0.9020   -4.2430   23.0100 F   0  0  0  0  0  0  0  0  0  0  0  0
   -4.9460   -4.6100   20.4590 C   0  0  2  0  0  0  0  0  0  0  0  0
   -4.8750   -4.0150   22.9160 C   0  0  0  0  0  0  0  0  0  0  0  0
   -4.2300   -4.3310   21.7780 C   0  0  0  0  0  0  0  0  0  0  0  0
   -2.8860   -4.4020   21.8390 C   0  0  0  0  0  0  0  0  0  0  0  0
   -2.2230   -4.1660   22.9810 C   0  0  0  0  0  0  0  0  0  0  0  0
   -2.8710   -3.8510   24.1140 C   0  0  0  0  0  0  0  0  0  0  0  0
   -4.2130   -3.7780   24.0610 C   0  0  0  0  0  0  0  0  0  0  0  0
  2  1  1  1
  3  2  1  0
  4  3  1  0
  5  4  1  0
  6  2  1  0
  7  6  1  0
  8  7  1  0
  8  3  1  0
  8  9  1  1
  3 10  1  1
 14  5  1  0
 14  1  1  0
 14 16  1  1
 16 15  1  0
 17 16  1  0
 17 12  1  0
 18 17  1  0
 18 13  1  0
 19 18  1  0
 19 11  1  0
 20 19  1  0
 20 15  1  0
M  END
$$$$
8DV8
     RDKit          3D

 37 42  0  0  0  0  0  0  0  0999 V2000
   17.6130  -16.4370   25.7820 N   0  0  0  0  0  0  0  0  0  0  0  0
   14.2160  -14.2170   24.5830 C   0  0  0  0  0  0  0  0  0  0  0  0
   15.3580  -14.9840   24.9090 C   0  0  0  0  0  0  0  0  0  0  0  0
   15.3800  -16.2800   24.7670 C   0  0  0  0  0  0  0  0  0  0  0  0
   16.5640  -14.2040   25.4010 C   0  0  0  0  0  0  0  0  0  0  0  0
   17.8170  -15.0320   25.4380 C   0  0  2  0  0  0  0  0  0  0  0  0
   18.3850  -17.1440   26.7400 C   0  0  1  0  0  0  0  0  0  0  0  0
   18.5530  -14.7500   24.1310 C   0  0  0  0  0  0  0  0  0  0  0  0
   17.5950  -19.0610   23.8900 C   0  0  0  0  0  0  0  0  0  0  0  0
   18.0690  -19.0530   21.5680 C   0  0  0  0  0  0  0  0  0  0  0  0
   17.3410  -19.4710   18.8270 C   0  0  0  0  0  0  0  0  0  0  0  0
   17.7690  -19.7190   17.3920 C   0  0  1  0  0  0  0  0  0  0  0  0
   18.8160  -15.4790   28.4360 C   0  0  0  0  0  0  0  0  0  0  0  0
   20.8850  -15.1630   29.5320 C   0  0  0  0  0  0  0  0  0  0  0  0
   20.6800  -16.8100   27.8330 C   0  0  0  0  0  0  0  0  0  0  0  0
   17.5680  -21.7670   17.5840 C   0  0  0  0  0  0  0  0  0  0  0  0
   14.1830  -16.8910   24.2850 C   0  0  0  0  0  0  0  0  0  0  0  0
   13.0840  -16.1600   23.9690 C   0  0  0  0  0  0  0  0  0  0  0  0
   13.0730  -14.8100   24.0920 C   0  0  0  0  0  0  0  0  0  0  0  0
   16.5850  -17.1500   25.0620 C   0  0  1  0  0  0  0  0  0  0  0  0
   11.9920  -14.0590   23.7730 O   0  0  0  0  0  0  0  0  0  0  0  0
   19.3930  -16.4370   27.6610 C   0  0  1  0  0  0  0  0  0  0  0  0
   19.1670  -14.3060   25.4410 C   0  0  0  0  0  0  0  0  0  0  0  0
   17.1140  -17.8030   23.8090 C   0  0  0  0  0  0  0  0  0  0  0  0
   18.0700  -19.6850   22.7640 C   0  0  0  0  0  0  0  0  0  0  0  0
   18.2060  -18.2380   26.9170 O   0  0  0  0  0  0  0  0  0  0  0  0
   17.5810  -17.7800   21.4670 C   0  0  0  0  0  0  0  0  0  0  0  0
   17.0860  -17.1480   22.6020 C   0  0  0  0  0  0  0  0  0  0  0  0
   19.5680  -14.8350   29.3790 C   0  0  0  0  0  0  0  0  0  0  0  0
   18.6720  -19.8920   20.0580 S   0  0  0  0  0  0  0  0  0  0  0  0
   21.4530  -16.1270   28.7580 C   0  0  0  0  0  0  0  0  0  0  0  0
   18.5320  -20.8780   17.6170 C   0  0  0  0  0  0  0  0  0  0  0  0
   16.9050  -21.4820   16.2480 N   0  0  0  0  0  0  0  0  0  0  0  0
   16.9090  -20.2320   16.1340 C   0  0  0  0  0  0  0  0  0  0  0  0
   17.5660  -22.0260   15.4700 C   0  0  0  0  0  0  0  0  0  0  0  0
   17.2060  -23.4820   15.1920 C   0  0  0  0  0  0  0  0  0  0  0  0
   16.6310  -23.5430   13.7830 C   0  0  0  0  0  0  0  0  0  0  0  0
  3  2  1  0
  4  3  1  0
  5  3  1  0
  6  1  1  0
  6  5  1  6
  7  1  1  0
  8  6  1  0
 12 11  1  1
 17  4  1  0
 18 17  1  0
 19 18  1  0
 19  2  1  0
 20  4  1  0
 20  1  1  0
 21 19  1  0
 22  7  1  0
 22 15  1  1
 22 13  1  0
 23  8  1  0
 23  6  1  0
 20 24  1  6
 24  9  1  0
 25 10  1  0
 25  9  1  0
  7 26  1  1
 27 10  1  0
 28 27  1  0
 28 24  1  0
 29 14  1  0
 29 13  1  0
 30 11  1  0
 30 10  1  0
 31 15  1  0
 31 14  1  0
 32 16  1  0
 32 12  1  0
 33 16  1  0
 34 33  1  0
 34 12  1  0
 35 33  1  0
 36 35  1  0
 37 36  1  0
M  END
$$$$
8DUB
     RDKit          3D

 35 40  0  0  0  0  0  0  0  0999 V2000
   43.1790   -5.5290   15.2320 N   0  0  0  0  0  0  0  0  0  0  0  0
   42.9060   -1.2590   15.7950 C   0  0  0  0  0  0  0  0  0  0  0  0
   42.9470   -2.7860   15.7280 C   0  0  2  0  0  0  0  0  0  0  0  0
   44.0670   -3.4400   16.0090 C   0  0  0  0  0  0  0  0  0  0  0  0
   41.6910   -3.4730   15.2680 C   0  0  0  0  0  0  0  0  0  0  0  0
   41.8610   -4.9980   15.2510 C   0  0  1  0  0  0  0  0  0  0  0  0
   43.4430   -6.7100   14.4880 C   0  0  1  0  0  0  0  0  0  0  0  0
   40.9590   -8.7840   12.3980 C   0  0  0  0  0  0  0  0  0  0  0  0
   41.3310   -6.6020   11.4460 C   0  0  0  0  0  0  0  0  0  0  0  0
   41.1430   -5.3220   16.5610 C   0  0  0  0  0  0  0  0  0  0  0  0
   43.7160   -4.9630   18.2710 C   0  0  0  0  0  0  0  0  0  0  0  0
   43.8360   -5.4450   19.6920 C   0  0  0  0  0  0  0  0  0  0  0  0
   44.6340   -6.4040   20.0170 C   0  0  0  0  0  0  0  0  0  0  0  0
   45.3640   -6.6420   17.6700 C   0  0  0  0  0  0  0  0  0  0  0  0
   45.9190   -7.2700   23.4150 C   0  0  0  0  0  0  0  0  0  0  0  0
   46.8820   -6.5290   21.4660 C   0  0  0  0  0  0  0  0  0  0  0  0
   45.2780   -2.6390   16.4200 C   0  0  0  0  0  0  0  0  0  0  0  0
   42.4110   -7.2780   13.5310 C   0  0  2  0  0  0  0  0  0  0  0  0
   41.9120   -8.4660   13.5110 C   0  0  0  0  0  0  0  0  0  0  0  0
   40.6990   -7.9550   11.4550 C   0  0  0  0  0  0  0  0  0  0  0  0
   42.1290   -6.2930   12.4310 C   0  0  0  0  0  0  0  0  0  0  0  0
   40.5260   -5.7470   15.2930 C   0  0  0  0  0  0  0  0  0  0  0  0
   44.4180   -5.5130   17.3420 C   0  0  0  0  0  0  0  0  0  0  0  0
   45.2290   -1.3580   16.4900 C   0  0  0  0  0  0  0  0  0  0  0  0
   45.4870   -7.0520   18.9240 C   0  0  0  0  0  0  0  0  0  0  0  0
   45.8690   -7.3670   21.9020 C   0  0  2  0  0  0  0  0  0  0  0  0
   46.6150   -5.4030   22.4390 C   0  0  0  0  0  0  0  0  0  0  0  0
   45.5390   -5.4660   24.1660 C   0  0  0  0  0  0  0  0  0  0  0  0
   43.9840   -0.5900   16.1470 C   0  0  0  0  0  0  0  0  0  0  0  0
   45.6590   -3.9390   24.3780 C   0  0  0  0  0  0  0  0  0  0  0  0
   44.2330   -4.9530   15.9770 C   0  0  1  0  0  0  0  0  0  0  0  0
   46.4200   -6.0330   23.6580 N   0  0  0  0  0  0  0  0  0  0  0  0
   44.4890   -7.1500   14.4420 O   0  0  0  0  0  0  0  0  0  0  0  0
   43.9650    0.7630   16.2340 O   0  0  0  0  0  0  0  0  0  0  0  0
   44.6450   -6.8060   21.3950 O   0  0  0  0  0  0  0  0  0  0  0  0
  3  2  1  6
  4  3  1  0
  5  3  1  0
  6  1  1  0
  6  5  1  6
  7  1  1  0
 10  6  1  0
 12 11  1  0
 13 12  1  0
 17  4  1  0
 18  7  1  0
 18 19  1  6
 19  8  1  0
 20  9  1  0
 20  8  1  0
 21 18  1  0
 21  9  1  0
 22  6  1  0
 22 10  1  0
 23 14  1  0
 23 11  1  0
 24 17  1  0
 25 14  1  0
 25 13  1  0
 26 16  1  0
 26 15  1  0
 27 16  1  0
 29  2  1  0
 29 24  1  0
 30 28  1  0
 31  1  1  0
 31 23  1  1
 31  4  1  0
 32 28  1  0
 32 15  1  0
 32 27  1  0
  7 33  1  6
 34 29  1  0
 35 13  1  0
 26 35  1  6
M  END
$$$$
7UJF
     RDKit          3D

 32 36  0  0  0  0  0  0  0  0999 V2000
   16.1870   12.6660  -21.4640 C   0  0  0  0  0  0  0  0  0  0  0  0
   16.9770   12.2080  -22.6490 C   0  0  1  0  0  0  0  0  0  0  0  0
   16.2150   11.0690  -23.3870 C   0  0  0  0  0  0  0  0  0  0  0  0
   17.1610   13.3640  -23.5270 C   0  0  0  0  0  0  0  0  0  0  0  0
   16.7690   14.5710  -22.6540 C   0  0  0  0  0  0  0  0  0  0  0  0
   16.7070   14.0060  -21.3040 N   0  0  0  0  0  0  0  0  0  0  0  0
   15.8740   14.7710  -20.4900 C   0  0  0  0  0  0  0  0  0  0  0  0
   16.0290   14.3250  -19.0310 C   0  0  0  0  0  0  0  0  0  0  0  0
   14.9730   13.3980  -18.7910 O   0  0  0  0  0  0  0  0  0  0  0  0
   14.9990   12.6610  -17.5670 C   0  0  0  0  0  0  0  0  0  0  0  0
   15.2800   13.4040  -16.2840 C   0  0  0  0  0  0  0  0  0  0  0  0
   15.2910   12.7000  -15.0980 C   0  0  0  0  0  0  0  0  0  0  0  0
   14.7530   11.3170  -17.5630 C   0  0  0  0  0  0  0  0  0  0  0  0
   14.7600   10.5450  -16.2450 C   0  0  0  0  0  0  0  0  0  0  0  0
   15.0220   11.2270  -15.0750 C   0  0  0  0  0  0  0  0  0  0  0  0
   15.0540   10.5510  -13.7240 C   0  0  2  0  0  0  0  0  0  0  0  0
   15.7570    9.3300  -13.9330 C   0  0  0  0  0  0  0  0  0  0  0  0
   17.2350    9.4740  -14.2330 C   0  0  0  0  0  0  0  0  0  0  0  0
   17.9570    8.3230  -14.4400 C   0  0  0  0  0  0  0  0  0  0  0  0
   17.3020    6.9390  -14.3760 C   0  0  0  0  0  0  0  0  0  0  0  0
   18.0880    5.8020  -14.6360 O   0  0  0  0  0  0  0  0  0  0  0  0
   15.9600    6.8060  -14.1020 C   0  0  0  0  0  0  0  0  0  0  0  0
   15.2160    8.1080  -13.8720 C   0  0  0  0  0  0  0  0  0  0  0  0
   13.7470    7.7200  -13.5910 C   0  0  0  0  0  0  0  0  0  0  0  0
   12.9570    9.0320  -13.8360 C   0  0  0  0  0  0  0  0  0  0  0  0
   13.6790   10.2490  -13.2020 C   0  0  2  0  0  0  0  0  0  0  0  0
   12.7470   11.4770  -13.2750 C   0  0  0  0  0  0  0  0  0  0  0  0
   11.9690   11.7040  -14.4090 C   0  0  0  0  0  0  0  0  0  0  0  0
   11.1360   12.8100  -14.4850 C   0  0  0  0  0  0  0  0  0  0  0  0
   11.0710   13.6920  -13.4080 C   0  0  0  0  0  0  0  0  0  0  0  0
   11.8290   13.4660  -12.2720 C   0  0  0  0  0  0  0  0  0  0  0  0
   12.6780   12.3620  -12.2020 C   0  0  0  0  0  0  0  0  0  0  0  0
  2  1  1  0
  2  3  1  6
  4  2  1  0
  5  4  1  0
  6  1  1  0
  6  5  1  0
  7  6  1  0
  8  7  1  0
  9  8  1  0
 10  9  1  0
 11 10  1  0
 12 11  1  0
 13 10  1  0
 14 13  1  0
 15 14  1  0
 15 12  1  0
 16 15  1  6
 17 16  1  0
 18 17  1  0
 19 18  1  0
 20 19  1  0
 21 20  1  0
 22 20  1  0
 23 22  1  0
 23 17  1  0
 24 23  1  0
 25 24  1  0
 26 25  1  0
 26 16  1  0
 26 27  1  6
 28 27  1  0
 29 28  1  0
 30 29  1  0
 31 30  1  0
 32 31  1  0
 32 27  1  0
M  END
$$$$
5TLT
     RDKit          3D

 79 79  0  0  0  0  0  0  0  0999 V2000
    8.1550   -1.1310   35.1970 N   0  0  0  0  0  0  0  0  0  0  0  0
    8.0240    0.0720   34.3720 C   0  0  2  0  0  0  0  0  0  0  0  0
    7.0470    1.0680   35.0030 C   0  0  0  0  0  0  0  0  0  0  0  0
    5.8450    0.8100   35.0370 O   0  0  0  0  0  0  0  0  0  0  0  0
    7.5590   -0.2980   32.9710 C   0  0  0  0  0  0  0  0  0  0  0  0
    7.4580    0.8980   32.0350 C   0  0  0  0  0  0  0  0  0  0  0  0
    8.5070    0.8100   30.9290 C   0  0  0  0  0  0  0  0  0  0  0  0
    8.2480    1.8300   29.8360 C   0  0  0  0  0  0  0  0  0  0  0  0
    8.9790    1.5100   28.5640 N   0  0  0  0  0  0  0  0  0  0  0  0
    7.5590    2.2080   35.4800 N   0  0  0  0  0  0  0  0  0  0  0  0
    6.7690    3.0520   36.3800 C   0  0  2  0  0  0  0  0  0  0  0  0
    5.5450    3.6020   35.6660 C   0  0  0  0  0  0  0  0  0  0  0  0
    4.4110    3.4530   36.1370 O   0  0  0  0  0  0  0  0  0  0  0  0
    7.6310    4.1790   36.9710 C   0  0  2  0  0  0  0  0  0  0  0  0
    8.7210    3.5840   37.8680 C   0  0  0  0  0  0  0  0  0  0  0  0
    6.7520    5.1330   37.7580 C   0  0  0  0  0  0  0  0  0  0  0  0
    9.7380    4.5890   38.3680 C   0  0  0  0  0  0  0  0  0  0  0  0
    5.7540    4.2280   34.5060 N   0  0  0  0  0  0  0  0  0  0  0  0
    4.6430    4.7960   33.7540 C   0  0  2  0  0  0  0  0  0  0  0  0
    3.5810    3.7480   33.4480 C   0  0  0  0  0  0  0  0  0  0  0  0
    2.3800    4.0380   33.4730 O   0  0  0  0  0  0  0  0  0  0  0  0
    5.1710    5.4210   32.4620 C   0  0  0  0  0  0  0  0  0  0  0  0
    4.1440    6.0360   31.5200 C   0  0  0  0  0  0  0  0  0  0  0  0
    3.2770    7.0470   32.2350 C   0  0  0  0  0  0  0  0  0  0  0  0
    4.8640    6.6960   30.3470 C   0  0  0  0  0  0  0  0  0  0  0  0
    4.0080    2.5310   33.1230 N   0  0  0  0  0  0  0  0  0  0  0  0
    3.0620    1.4650   32.8340 C   0  0  2  0  0  0  0  0  0  0  0  0
    2.1990    1.1660   34.0570 C   0  0  0  0  0  0  0  0  0  0  0  0
    0.9700    1.0450   33.9550 O   0  0  0  0  0  0  0  0  0  0  0  0
    3.8470    0.2340   32.3840 C   0  0  0  0  0  0  0  0  0  0  0  0
    3.0050   -0.8820   31.8670 C   0  0  0  0  0  0  0  0  0  0  0  0
    2.5800   -1.9210   32.6650 N   0  0  0  0  0  0  0  0  0  0  0  0
    2.5400   -1.1460   30.6250 C   0  0  0  0  0  0  0  0  0  0  0  0
    1.8780   -2.7730   31.9390 C   0  0  0  0  0  0  0  0  0  0  0  0
    1.8430   -2.3270   30.6960 N   0  0  0  0  0  0  0  0  0  0  0  0
    2.8290    1.0900   35.2300 N   0  0  0  0  0  0  0  0  0  0  0  0
    2.0950    0.7980   36.4580 C   0  0  2  0  0  0  0  0  0  0  0  0
    1.1440    1.9340   36.8200 C   0  0  0  0  0  0  0  0  0  0  0  0
   -0.0080    1.6880   37.1950 O   0  0  0  0  0  0  0  0  0  0  0  0
    3.0770    0.5370   37.6000 C   0  0  0  0  0  0  0  0  0  0  0  0
    2.4650   -0.1890   38.7740 C   0  0  0  0  0  0  0  0  0  0  0  0
    3.3930   -0.2120   39.9770 C   0  0  0  0  0  0  0  0  0  0  0  0
    3.4180    1.0820   40.6460 N   0  0  0  0  0  0  0  0  0  0  0  0
    4.4870    1.8640   40.7270 C   0  0  0  0  0  0  0  0  0  0  0  0
    5.6400    1.4800   40.1950 N   0  0  0  0  0  0  0  0  0  0  0  0
    4.4010    3.0270   41.3560 N   0  0  0  0  0  0  0  0  0  0  0  0
    1.6070    3.1820   36.7160 N   0  0  0  0  0  0  0  0  0  0  0  0
    0.7570    4.3220   37.0560 C   0  0  2  0  0  0  0  0  0  0  0  0
   -0.4400    4.4400   36.1230 C   0  0  0  0  0  0  0  0  0  0  0  0
   -1.5330    4.8110   36.5670 O   0  0  0  0  0  0  0  0  0  0  0  0
    1.5730    5.6080   37.0330 C   0  0  0  0  0  0  0  0  0  0  0  0
    2.6910    5.6140   38.0750 C   0  0  0  0  0  0  0  0  0  0  0  0
    3.3800    6.9670   38.1180 C   0  0  0  0  0  0  0  0  0  0  0  0
    2.1430    5.2150   39.4390 C   0  0  0  0  0  0  0  0  0  0  0  0
   -0.2620    4.1310   34.8360 N   0  0  0  0  0  0  0  0  0  0  0  0
   -1.4090    4.1050   33.9340 C   0  0  2  0  0  0  0  0  0  0  0  0
   -2.3610    2.9600   34.2570 C   0  0  0  0  0  0  0  0  0  0  0  0
   -3.5560    3.0450   33.9550 O   0  0  0  0  0  0  0  0  0  0  0  0
   -0.9310    3.9980   32.4910 C   0  0  0  0  0  0  0  0  0  0  0  0
   -0.4010    5.3220   31.9530 C   0  0  0  0  0  0  0  0  0  0  0  0
    0.4440    5.0910   30.7080 C   0  0  0  0  0  0  0  0  0  0  0  0
   -1.5760    6.2390   31.6500 C   0  0  0  0  0  0  0  0  0  0  0  0
   -1.8560    1.8830   34.8600 N   0  0  0  0  0  0  0  0  0  0  0  0
   -2.6990    0.7310   35.1550 C   0  0  2  0  0  0  0  0  0  0  0  0
   -3.4560    0.8960   36.4670 C   0  0  0  0  0  0  0  0  0  0  0  0
   -4.5690    0.3720   36.6050 O   0  0  0  0  0  0  0  0  0  0  0  0
   -1.8410   -0.5350   35.2010 C   0  0  0  0  0  0  0  0  0  0  0  0
   -2.3690   -1.6910   34.3870 C   0  0  0  0  0  0  0  0  0  0  0  0
   -1.4240   -2.8770   34.4050 C   0  0  0  0  0  0  0  0  0  0  0  0
   -0.5100   -2.9420   35.2310 O   0  0  0  0  0  0  0  0  0  0  0  0
   -1.6380   -3.8240   33.4960 N   0  0  0  0  0  0  0  0  0  0  0  0
   -2.8680    1.6000   37.4340 N   0  0  0  0  0  0  0  0  0  0  0  0
   -3.4540    1.7720   38.7600 C   0  0  2  0  0  0  0  0  0  0  0  0
   -4.7790    2.5160   38.6690 C   0  0  0  0  0  0  0  0  0  0  0  0
   -5.0640    3.1430   37.6510 O   0  0  0  0  0  0  0  0  0  0  0  0
   -2.4900    2.5240   39.6880 C   0  0  0  0  0  0  0  0  0  0  0  0
   -1.2690    1.6940   40.0710 C   0  0  0  0  0  0  0  0  0  0  0  0
   -1.3470    0.4430   40.0380 O   0  0  0  0  0  0  0  0  0  0  0  0
   -0.2290    2.2970   40.4250 O   0  0  0  0  0  0  0  0  0  0  0  0
  2  1  1  1
  3  2  1  0
  4  3  2  0
  5  2  1  0
  6  5  1  0
  7  6  1  0
  8  7  1  0
  9  8  1  0
 10  3  1  0
 11 10  1  6
 12 11  1  0
 13 12  2  0
 14 11  1  0
 15 14  1  0
 14 16  1  1
 17 15  1  0
 18 12  1  0
 19 18  1  0
 20 19  1  0
 21 20  2  0
 19 22  1  6
 23 22  1  0
 24 23  1  0
 25 23  1  0
 26 20  1  0
 27 26  1  0
 28 27  1  0
 29 28  2  0
 27 30  1  1
 31 30  1  0
 32 31  1  0
 33 31  2  0
 34 32  2  0
 35 34  1  0
 35 33  1  0
 36 28  1  0
 37 36  1  0
 38 37  1  0
 39 38  2  0
 37 40  1  1
 41 40  1  0
 42 41  1  0
 43 42  1  0
 44 43  1  0
 45 44  1  0
 46 44  2  0
 47 38  1  0
 48 47  1  0
 49 48  1  0
 50 49  2  0
 48 51  1  6
 52 51  1  0
 53 52  1  0
 54 52  1  0
 55 49  1  0
 56 55  1  0
 57 56  1  0
 58 57  2  0
 56 59  1  6
 60 59  1  0
 61 60  1  0
 62 60  1  0
 63 57  1  0
 64 63  1  0
 65 64  1  0
 66 65  2  0
 64 67  1  1
 68 67  1  0
 69 68  1  0
 70 69  2  0
 71 69  1  0
 72 65  1  0
 73 72  1  0
 74 73  1  0
 75 74  2  0
 73 76  1  1
 77 76  1  0
 78 77  2  0
 79 77  1  0
M  END
$$$$
5TN9
     RDKit          3D

 33 37  0  0  0  0  0  0  0  0999 V2000
   14.4860   24.1550   42.0950 C   0  0  0  0  0  0  0  0  0  0  0  0
   15.2300   23.2280   41.4740 C   0  0  0  0  0  0  0  0  0  0  0  0
   16.4880   22.9680   41.8640 C   0  0  0  0  0  0  0  0  0  0  0  0
   17.0750   23.6060   42.8970 C   0  0  0  0  0  0  0  0  0  0  0  0
   16.3160   24.5380   43.5100 C   0  0  0  0  0  0  0  0  0  0  0  0
   15.0570   24.8060   43.1230 C   0  0  0  0  0  0  0  0  0  0  0  0
   18.3450   23.3430   43.2770 C   0  0  0  0  0  0  0  0  0  0  0  0
   18.9950   23.3110   44.4670 C   0  0  0  0  0  0  0  0  0  0  0  0
   20.4310   22.9500   44.0930 C   0  0  1  0  0  0  0  0  0  0  0  0
   18.6270   23.5020   45.7540 C   0  0  0  0  0  0  0  0  0  0  0  0
   17.4910   23.0110   46.2870 C   0  0  0  0  0  0  0  0  0  0  0  0
   17.1640   23.2190   47.5730 C   0  0  0  0  0  0  0  0  0  0  0  0
   17.9380   23.9250   48.4180 C   0  0  0  0  0  0  0  0  0  0  0  0
   19.0760   24.4130   47.8840 C   0  0  0  0  0  0  0  0  0  0  0  0
   19.4080   24.2060   46.5980 C   0  0  0  0  0  0  0  0  0  0  0  0
   19.4310   23.0180   42.2560 C   0  0  2  0  0  0  0  0  0  0  0  0
   20.4370   21.4560   43.7180 C   0  0  1  0  0  0  0  0  0  0  0  0
   19.7060   21.5110   42.3560 C   0  0  0  0  0  0  0  0  0  0  0  0
   20.5780   23.5770   42.8440 O   0  0  0  0  0  0  0  0  0  0  0  0
   17.5260   24.0920   49.7210 O   0  0  0  0  0  0  0  0  0  0  0  0
   16.1480   24.1500   49.9950 C   0  0  0  0  0  0  0  0  0  0  0  0
   15.8240   23.2820   51.2140 C   0  0  0  0  0  0  0  0  0  0  0  0
   15.2260   24.0120   52.3290 N   0  0  0  0  0  0  0  0  0  0  0  0
   14.4610   23.1020   53.1760 C   0  0  0  0  0  0  0  0  0  0  0  0
   13.7600   23.8370   54.3280 C   0  0  0  0  0  0  0  0  0  0  0  0
   14.7970   24.5640   55.1880 C   0  0  0  0  0  0  0  0  0  0  0  0
   15.6040   25.5070   54.2900 C   0  0  0  0  0  0  0  0  0  0  0  0
   16.2190   24.7460   53.1040 C   0  0  0  0  0  0  0  0  0  0  0  0
   13.2120   24.4250   41.7050 O   0  0  0  0  0  0  0  0  0  0  0  0
   22.1070   20.6420   43.6240 S   0  0  2  0  0  0  0  0  0  0  0  0
   22.5780   21.6760   42.4020 O   0  0  0  0  0  0  0  0  0  0  0  0
   21.7390   19.2940   43.2130 O   0  0  0  0  0  0  0  0  0  0  0  0
   22.6040   20.9420   44.9610 O   0  0  0  0  0  0  0  0  0  0  0  0
  2  1  1  0
  3  2  1  0
  4  3  1  0
  5  4  1  0
  6  5  1  0
  6  1  1  0
  7  4  1  0
  8  7  1  0
  9  8  1  6
 10  8  1  0
 11 10  1  0
 12 11  1  0
 13 12  1  0
 14 13  1  0
 15 14  1  0
 15 10  1  0
 16  7  1  0
 17  9  1  0
 17 18  1  6
 16 18  1  1
 19 16  1  0
 19  9  1  0
 20 13  1  0
 21 20  1  0
 22 21  1  0
 23 22  1  0
 24 23  1  0
 25 24  1  0
 26 25  1  0
 27 26  1  0
 28 27  1  0
 28 23  1  0
 29  1  1  0
 30 17  1  0
 30 31  1  6
 32 30  1  0
 33 30  1  0
M  END
$$$$
5TLG
     RDKit          3D

 76 76  0  0  0  0  0  0  0  0999 V2000
   29.2790   18.0560    5.9870 N   0  0  0  0  0  0  0  0  0  0  0  0
   28.5030   16.8420    5.7650 C   0  0  2  0  0  0  0  0  0  0  0  0
   28.2930   16.5640    4.2810 C   0  0  0  0  0  0  0  0  0  0  0  0
   28.1480   17.4870    3.4800 O   0  0  0  0  0  0  0  0  0  0  0  0
   27.1430   16.9380    6.4610 C   0  0  0  0  0  0  0  0  0  0  0  0
   27.2020   16.9740    7.9790 C   0  0  0  0  0  0  0  0  0  0  0  0
   25.8010   17.0320    8.5680 C   0  0  0  0  0  0  0  0  0  0  0  0
   25.8290   17.0320   10.0860 C   0  0  0  0  0  0  0  0  0  0  0  0
   24.4550   17.1050   10.6600 N   0  0  0  0  0  0  0  0  0  0  0  0
   28.2770   15.2840    3.9220 N   0  0  0  0  0  0  0  0  0  0  0  0
   27.9060   14.8750    2.5730 C   0  0  2  0  0  0  0  0  0  0  0  0
   26.4330   15.2090    2.3540 C   0  0  0  0  0  0  0  0  0  0  0  0
   26.0090   15.5280    1.2420 O   0  0  0  0  0  0  0  0  0  0  0  0
   28.1570   13.3680    2.3420 C   0  0  2  0  0  0  0  0  0  0  0  0
   29.6490   13.0490    2.4630 C   0  0  0  0  0  0  0  0  0  0  0  0
   27.6460   12.9300    0.9770 C   0  0  0  0  0  0  0  0  0  0  0  0
   30.0060   12.2320    3.6830 C   0  0  0  0  0  0  0  0  0  0  0  0
   25.6580   15.2050    3.4090 N   0  0  0  0  0  0  0  0  0  0  0  0
   24.2550   15.5060    3.2790 C   0  0  2  0  0  0  0  0  0  0  0  0
   23.9860   16.9120    2.8220 C   0  0  0  0  0  0  0  0  0  0  0  0
   23.1300   17.1410    2.0090 O   0  0  0  0  0  0  0  0  0  0  0  0
   23.5530   15.2190    4.5740 C   0  0  0  0  0  0  0  0  0  0  0  0
   22.0510   15.1420    4.6640 C   0  0  0  0  0  0  0  0  0  0  0  0
   21.4360   14.4690    3.4610 C   0  0  0  0  0  0  0  0  0  0  0  0
   21.7750   14.3750    5.9200 C   0  0  0  0  0  0  0  0  0  0  0  0
   24.7450   17.8520    3.3410 N   0  0  0  0  0  0  0  0  0  0  0  0
   24.6120   19.2250    2.9360 C   0  0  2  0  0  0  0  0  0  0  0  0
   24.8980   19.3510    1.4730 C   0  0  0  0  0  0  0  0  0  0  0  0
   24.1930   20.0470    0.7890 O   0  0  0  0  0  0  0  0  0  0  0  0
   25.5880   20.1290    3.6860 C   0  0  0  0  0  0  0  0  0  0  0  0
   25.3060   20.2500    5.1450 C   0  0  0  0  0  0  0  0  0  0  0  0
   26.2990   20.3950    6.0810 N   0  0  0  0  0  0  0  0  0  0  0  0
   24.1430   20.2300    5.8310 C   0  0  0  0  0  0  0  0  0  0  0  0
   25.7590   20.4470    7.2830 C   0  0  0  0  0  0  0  0  0  0  0  0
   24.4510   20.3390    7.1600 N   0  0  0  0  0  0  0  0  0  0  0  0
   25.9350   18.6790    0.9910 N   0  0  0  0  0  0  0  0  0  0  0  0
   26.2770   18.8300   -0.4000 C   0  0  2  0  0  0  0  0  0  0  0  0
   25.1850   18.2850   -1.2780 C   0  0  0  0  0  0  0  0  0  0  0  0
   24.8180   18.9040   -2.2580 O   0  0  0  0  0  0  0  0  0  0  0  0
   27.6090   18.1920   -0.7630 C   0  0  0  0  0  0  0  0  0  0  0  0
   27.8630   18.2790   -2.2620 C   0  0  0  0  0  0  0  0  0  0  0  0
   29.1570   17.6510   -2.7290 C   0  0  0  0  0  0  0  0  0  0  0  0
   29.1240   16.2010   -2.7220 N   0  0  0  0  0  0  0  0  0  0  0  0
   29.8790   15.4610   -1.9430 C   0  0  0  0  0  0  0  0  0  0  0  0
   30.7510   16.0400   -1.1530 N   0  0  0  0  0  0  0  0  0  0  0  0
   29.7930   14.1560   -1.9830 N   0  0  0  0  0  0  0  0  0  0  0  0
   24.6670   17.1230   -0.9340 N   0  0  0  0  0  0  0  0  0  0  0  0
   23.6860   16.4990   -1.7800 C   0  0  2  0  0  0  0  0  0  0  0  0
   22.3890   17.2840   -1.8670 C   0  0  0  0  0  0  0  0  0  0  0  0
   21.7750   17.3740   -2.8990 O   0  0  0  0  0  0  0  0  0  0  0  0
   23.4520   15.0920   -1.3050 C   0  0  0  0  0  0  0  0  0  0  0  0
   24.6070   14.1130   -1.4020 C   0  0  0  0  0  0  0  0  0  0  0  0
   24.3450   12.7600   -0.7770 C   0  0  0  0  0  0  0  0  0  0  0  0
   25.1390   14.0250   -2.8080 C   0  0  0  0  0  0  0  0  0  0  0  0
   21.9740   17.8230   -0.7370 N   0  0  0  0  0  0  0  0  0  0  0  0
   20.8260   18.7090   -0.6480 C   0  0  2  0  0  0  0  0  0  0  0  0
   20.9390   20.0330   -1.3850 C   0  0  0  0  0  0  0  0  0  0  0  0
   19.9890   20.5220   -1.9360 O   0  0  0  0  0  0  0  0  0  0  0  0
   20.5210   18.9730    0.8030 C   0  0  0  0  0  0  0  0  0  0  0  0
   19.7740   17.8420    1.4490 C   0  0  0  0  0  0  0  0  0  0  0  0
   19.9130   17.9220    2.9400 C   0  0  0  0  0  0  0  0  0  0  0  0
   18.3350   17.8840    1.0120 C   0  0  0  0  0  0  0  0  0  0  0  0
   22.1190   20.6180   -1.3390 N   0  0  0  0  0  0  0  0  0  0  0  0
   22.4920   21.7680   -2.1560 C   0  0  2  0  0  0  0  0  0  0  0  0
   22.5960   21.4480   -3.6250 C   0  0  0  0  0  0  0  0  0  0  0  0
   22.2450   22.2420   -4.4700 O   0  0  0  0  0  0  0  0  0  0  0  0
   23.7610   22.4220   -1.6150 C   0  0  0  0  0  0  0  0  0  0  0  0
   23.4940   23.2820   -0.4050 C   0  0  0  0  0  0  0  0  0  0  0  0
   24.7350   23.7360    0.3210 C   0  0  0  0  0  0  0  0  0  0  0  0
   25.6710   22.9860    0.5090 O   0  0  0  0  0  0  0  0  0  0  0  0
   24.7190   24.9570    0.7750 N   0  0  0  0  0  0  0  0  0  0  0  0
   23.1180   20.2650   -3.8920 N   0  0  0  0  0  0  0  0  0  0  0  0
   23.7070   19.9170   -5.1550 C   0  0  2  0  0  0  0  0  0  0  0  0
   22.6410   19.4930   -6.1500 C   0  0  0  0  0  0  0  0  0  0  0  0
   22.1210   18.3800   -6.0990 O   0  0  0  0  0  0  0  0  0  0  0  0
   24.7210   18.7990   -4.9610 C   0  0  0  0  0  0  0  0  0  0  0  0
  2  1  1  6
  3  2  1  0
  4  3  2  0
  5  2  1  0
  6  5  1  0
  7  6  1  0
  8  7  1  0
  9  8  1  0
 10  3  1  0
 11 10  1  1
 12 11  1  0
 13 12  2  0
 14 11  1  0
 15 14  1  0
 14 16  1  6
 17 15  1  0
 18 12  1  0
 19 18  1  0
 20 19  1  0
 21 20  2  0
 19 22  1  1
 23 22  1  0
 24 23  1  0
 25 23  1  0
 26 20  1  0
 27 26  1  0
 28 27  1  0
 29 28  2  0
 27 30  1  1
 31 30  1  0
 32 31  1  0
 33 31  2  0
 34 32  2  0
 35 34  1  0
 35 33  1  0
 36 28  1  0
 37 36  1  0
 38 37  1  0
 39 38  2  0
 37 40  1  1
 41 40  1  0
 42 41  1  0
 43 42  1  0
 44 43  1  0
 45 44  1  0
 46 44  2  0
 47 38  1  0
 48 47  1  0
 49 48  1  0
 50 49  2  0
 48 51  1  1
 52 51  1  0
 53 52  1  0
 54 52  1  0
 55 49  1  0
 56 55  1  0
 57 56  1  0
 58 57  2  0
 56 59  1  1
 60 59  1  0
 61 60  1  0
 62 60  1  0
 63 57  1  0
 64 63  1  0
 65 64  1  0
 66 65  2  0
 64 67  1  1
 68 67  1  0
 69 68  1  0
 70 69  2  0
 71 69  1  0
 72 65  1  0
 73 72  1  0
 74 73  1  0
 75 74  2  0
 73 76  1  1
M  END
$$$$
3UUD
     RDKit          3D

 20 23  0  0  0  0  0  0  0  0999 V2000
   20.1490    4.1850    7.7240 C   0  0  0  0  0  0  0  0  0  0  0  0
   18.8270    4.3900    8.0270 C   0  0  0  0  0  0  0  0  0  0  0  0
   17.9580    4.9780    7.1560 C   0  0  2  0  0  0  0  0  0  0  0  0
   16.6830    5.1560    7.4000 O   0  0  0  0  0  0  0  0  0  0  0  0
   18.4820    5.3260    5.9280 C   0  0  0  0  0  0  0  0  0  0  0  0
   19.7950    5.1380    5.5910 C   0  0  0  0  0  0  0  0  0  0  0  0
   20.2710    5.5740    4.1940 C   0  0  0  0  0  0  0  0  0  0  0  0
   21.7470    5.6320    4.0640 C   0  0  0  0  0  0  0  0  0  0  0  0
   22.3700    4.4120    4.6090 C   0  0  2  0  0  0  0  0  0  0  0  0
   22.1120    4.3660    6.1420 C   0  0  1  0  0  0  0  0  0  0  0  0
   20.6360    4.5490    6.4800 C   0  0  1  0  0  0  0  0  0  0  0  0
   22.8250    3.1530    6.8150 C   0  0  0  0  0  0  0  0  0  0  0  0
   24.3070    3.1070    6.4540 C   0  0  0  0  0  0  0  0  0  0  0  0
   24.5350    3.1820    4.9420 C   0  0  1  0  0  0  0  0  0  0  0  0
   23.8640    4.4240    4.4110 C   0  0  1  0  0  0  0  0  0  0  0  0
   24.3750    4.4970    2.9840 C   0  0  0  0  0  0  0  0  0  0  0  0
   25.7980    3.9550    3.0890 C   0  0  0  0  0  0  0  0  0  0  0  0
   25.9700    3.4700    4.5580 C   0  0  2  0  0  0  0  0  0  0  0  0
   26.7720    2.3450    4.6230 O   0  0  0  0  0  0  0  0  0  0  0  0
   24.0580    1.9160    4.3080 C   0  0  0  0  0  0  0  0  0  0  0  0
  2  1  1  0
  3  2  1  0
  3  4  1  6
  5  3  1  0
  6  5  1  0
  7  6  1  0
  8  7  1  0
  9  8  1  1
 10  9  1  0
 11  6  1  0
 11  1  1  1
 11 10  1  0
 10 12  1  6
 13 12  1  0
 14 13  1  0
 15 14  1  0
 15  9  1  0
 15 16  1  6
 17 16  1  0
 18 17  1  0
 18 14  1  0
 18 19  1  6
 14 20  1  6
M  END
$$$$
5TMT
     RDKit          3D

 79 79  0  0  0  0  0  0  0  0999 V2000
  -10.0330   -2.6190    6.9640 N   0  0  0  0  0  0  0  0  0  0  0  0
   -9.7210   -1.2110    6.7500 C   0  0  2  0  0  0  0  0  0  0  0  0
  -10.6790   -0.3330    7.5510 C   0  0  0  0  0  0  0  0  0  0  0  0
  -11.8700   -0.6340    7.6520 O   0  0  0  0  0  0  0  0  0  0  0  0
   -9.7830   -0.8720    5.2570 C   0  0  0  0  0  0  0  0  0  0  0  0
   -8.7660    0.1660    4.8120 C   0  0  0  0  0  0  0  0  0  0  0  0
   -8.4180    0.0140    3.3380 C   0  0  0  0  0  0  0  0  0  0  0  0
   -9.6380    0.1950    2.4500 C   0  0  0  0  0  0  0  0  0  0  0  0
   -9.3070    0.0160    1.0080 N   0  0  0  0  0  0  0  0  0  0  0  0
  -10.1490    0.7540    8.1200 N   0  0  0  0  0  0  0  0  0  0  0  0
  -10.9290    1.5780    9.0430 C   0  0  2  0  0  0  0  0  0  0  0  0
  -12.1340    2.1850    8.3360 C   0  0  0  0  0  0  0  0  0  0  0  0
  -13.2560    2.1680    8.8550 O   0  0  0  0  0  0  0  0  0  0  0  0
  -10.0430    2.6690    9.6700 C   0  0  2  0  0  0  0  0  0  0  0  0
   -8.9000    2.0400   10.4690 C   0  0  0  0  0  0  0  0  0  0  0  0
  -10.8730    3.5860   10.5550 C   0  0  0  0  0  0  0  0  0  0  0  0
   -7.9670    3.0590   11.0750 C   0  0  0  0  0  0  0  0  0  0  0  0
  -11.9190    2.7370    7.1390 N   0  0  0  0  0  0  0  0  0  0  0  0
  -13.0090    3.3810    6.4140 C   0  0  2  0  0  0  0  0  0  0  0  0
  -14.1120    2.3930    6.0590 C   0  0  0  0  0  0  0  0  0  0  0  0
  -15.2930    2.7590    6.0480 O   0  0  0  0  0  0  0  0  0  0  0  0
  -12.4690    4.0560    5.1540 C   0  0  0  0  0  0  0  0  0  0  0  0
  -13.4930    4.6930    4.2130 C   0  0  0  0  0  0  0  0  0  0  0  0
  -14.2980    5.7550    4.9370 C   0  0  0  0  0  0  0  0  0  0  0  0
  -12.8080    5.2800    2.9890 C   0  0  0  0  0  0  0  0  0  0  0  0
  -13.7530    1.1380    5.7830 N   0  0  0  0  0  0  0  0  0  0  0  0
  -14.7480    0.1540    5.3690 C   0  0  2  0  0  0  0  0  0  0  0  0
  -15.7390   -0.1390    6.4900 C   0  0  0  0  0  0  0  0  0  0  0  0
  -16.9560   -0.1490    6.2710 O   0  0  0  0  0  0  0  0  0  0  0  0
  -14.0520   -1.1290    4.9140 C   0  0  0  0  0  0  0  0  0  0  0  0
  -14.9970   -2.2210    4.5200 C   0  0  0  0  0  0  0  0  0  0  0  0
  -14.7330   -3.5540    4.7540 N   0  0  0  0  0  0  0  0  0  0  0  0
  -16.2040   -2.1790    3.9070 C   0  0  0  0  0  0  0  0  0  0  0  0
  -15.7370   -4.2850    4.3040 C   0  0  0  0  0  0  0  0  0  0  0  0
  -16.6430   -3.4750    3.7850 N   0  0  0  0  0  0  0  0  0  0  0  0
  -15.2380   -0.3780    7.7040 N   0  0  0  0  0  0  0  0  0  0  0  0
  -16.1230   -0.7530    8.8010 C   0  0  2  0  0  0  0  0  0  0  0  0
  -16.9050    0.4360    9.3450 C   0  0  0  0  0  0  0  0  0  0  0  0
  -18.0280    0.2580    9.8250 O   0  0  0  0  0  0  0  0  0  0  0  0
  -15.3320   -1.4230    9.9240 C   0  0  0  0  0  0  0  0  0  0  0  0
  -14.3630   -0.5110   10.6490 C   0  0  0  0  0  0  0  0  0  0  0  0
  -13.9300   -1.1280   11.9680 C   0  0  0  0  0  0  0  0  0  0  0  0
  -13.0170   -0.2550   12.6960 N   0  0  0  0  0  0  0  0  0  0  0  0
  -13.4060    0.7440   13.4790 C   0  0  0  0  0  0  0  0  0  0  0  0
  -14.6970    1.0040   13.6400 N   0  0  0  0  0  0  0  0  0  0  0  0
  -12.5010    1.4850   14.1000 N   0  0  0  0  0  0  0  0  0  0  0  0
  -16.3390    1.6440    9.2910 N   0  0  0  0  0  0  0  0  0  0  0  0
  -17.1120    2.8220    9.6660 C   0  0  2  0  0  0  0  0  0  0  0  0
  -18.2630    3.0590    8.7010 C   0  0  0  0  0  0  0  0  0  0  0  0
  -19.3120    3.5760    9.1030 O   0  0  0  0  0  0  0  0  0  0  0  0
  -16.2140    4.0570    9.7230 C   0  0  0  0  0  0  0  0  0  0  0  0
  -15.1180    4.0730   10.7920 C   0  0  0  0  0  0  0  0  0  0  0  0
  -14.3080    5.3570   10.7160 C   0  0  0  0  0  0  0  0  0  0  0  0
  -15.7170    3.8980   12.1790 C   0  0  0  0  0  0  0  0  0  0  0  0
  -18.0910    2.6870    7.4300 N   0  0  0  0  0  0  0  0  0  0  0  0
  -19.1590    2.8690    6.4520 C   0  0  2  0  0  0  0  0  0  0  0  0
  -20.2940    1.8790    6.6830 C   0  0  0  0  0  0  0  0  0  0  0  0
  -21.4710    2.2560    6.6610 O   0  0  0  0  0  0  0  0  0  0  0  0
  -18.5980    2.7370    5.0370 C   0  0  0  0  0  0  0  0  0  0  0  0
  -17.9440    4.0110    4.5010 C   0  0  0  0  0  0  0  0  0  0  0  0
  -17.2160    3.7460    3.1990 C   0  0  0  0  0  0  0  0  0  0  0  0
  -18.9900    5.0980    4.3140 C   0  0  0  0  0  0  0  0  0  0  0  0
  -19.9650    0.6060    6.9100 N   0  0  0  0  0  0  0  0  0  0  0  0
  -20.9840   -0.3960    7.2020 C   0  0  2  0  0  0  0  0  0  0  0  0
  -21.5090   -0.3020    8.6300 C   0  0  0  0  0  0  0  0  0  0  0  0
  -22.2410   -1.1950    9.0690 O   0  0  0  0  0  0  0  0  0  0  0  0
  -20.4430   -1.8060    6.9370 C   0  0  0  0  0  0  0  0  0  0  0  0
  -19.4090   -2.3050    7.9340 C   0  0  0  0  0  0  0  0  0  0  0  0
  -19.0390   -3.7580    7.6970 C   0  0  0  0  0  0  0  0  0  0  0  0
  -19.4880   -4.3730    6.7310 O   0  0  0  0  0  0  0  0  0  0  0  0
  -18.2200   -4.3160    8.5830 N   0  0  0  0  0  0  0  0  0  0  0  0
  -21.1600    0.7570    9.3530 N   0  0  0  0  0  0  0  0  0  0  0  0
  -21.5930    0.9440   10.7310 C   0  0  2  0  0  0  0  0  0  0  0  0
  -22.7670    1.9150   10.7980 C   0  0  0  0  0  0  0  0  0  0  0  0
  -23.7410    1.6800   11.5130 O   0  0  0  0  0  0  0  0  0  0  0  0
  -20.4320    1.4560   11.5850 C   0  0  0  0  0  0  0  0  0  0  0  0
  -20.5680    1.0780   13.0440 C   0  0  0  0  0  0  0  0  0  0  0  0
  -21.7110    1.0120   13.5460 O   0  0  0  0  0  0  0  0  0  0  0  0
  -19.5240    0.8430   13.6880 O   0  0  0  0  0  0  0  0  0  0  0  0
  2  1  1  6
  3  2  1  0
  4  3  2  0
  5  2  1  0
  6  5  1  0
  7  6  1  0
  8  7  1  0
  9  8  1  0
 10  3  1  0
 11 10  1  6
 12 11  1  0
 13 12  2  0
 14 11  1  0
 15 14  1  0
 14 16  1  1
 17 15  1  0
 18 12  1  0
 19 18  1  0
 20 19  1  0
 21 20  2  0
 19 22  1  6
 23 22  1  0
 24 23  1  0
 25 23  1  0
 26 20  1  0
 27 26  1  0
 28 27  1  0
 29 28  2  0
 27 30  1  1
 31 30  1  0
 32 31  1  0
 33 31  2  0
 34 32  2  0
 35 34  1  0
 35 33  1  0
 36 28  1  0
 37 36  1  0
 38 37  1  0
 39 38  2  0
 37 40  1  1
 41 40  1  0
 42 41  1  0
 43 42  1  0
 44 43  1  0
 45 44  1  0
 46 44  2  0
 47 38  1  0
 48 47  1  0
 49 48  1  0
 50 49  2  0
 48 51  1  6
 52 51  1  0
 53 52  1  0
 54 52  1  0
 55 49  1  0
 56 55  1  0
 57 56  1  0
 58 57  2  0
 56 59  1  6
 60 59  1  0
 61 60  1  0
 62 60  1  0
 63 57  1  0
 64 63  1  0
 65 64  1  0
 66 65  2  0
 64 67  1  1
 68 67  1  0
 69 68  1  0
 70 69  2  0
 71 69  1  0
 72 65  1  0
 73 72  1  0
 74 73  1  0
 75 74  2  0
 73 76  1  1
 77 76  1  0
 78 77  2  0
 79 77  1  0
M  END
$$$$
5TM5
     RDKit          3D

 79 79  0  0  0  0  0  0  0  0999 V2000
    0.2410  -17.6830   21.2700 N   0  0  0  0  0  0  0  0  0  0  0  0
    0.1470  -16.2300   21.3440 C   0  0  2  0  0  0  0  0  0  0  0  0
    1.0070  -15.5560   20.2820 C   0  0  0  0  0  0  0  0  0  0  0  0
    2.1430  -15.9650   20.0390 O   0  0  0  0  0  0  0  0  0  0  0  0
    0.5590  -15.7320   22.7310 C   0  0  0  0  0  0  0  0  0  0  0  0
   -0.4220  -16.0710   23.8390 C   0  0  0  0  0  0  0  0  0  0  0  0
   -0.0040  -15.4230   25.1510 C   0  0  0  0  0  0  0  0  0  0  0  0
   -0.9970  -15.7250   26.2600 C   0  0  0  0  0  0  0  0  0  0  0  0
   -0.5920  -15.1050   27.5520 N   0  0  0  0  0  0  0  0  0  0  0  0
    0.4550  -14.5180   19.6520 N   0  0  0  0  0  0  0  0  0  0  0  0
    1.2220  -13.7410   18.6820 C   0  0  2  0  0  0  0  0  0  0  0  0
    2.4040  -13.0620   19.3630 C   0  0  0  0  0  0  0  0  0  0  0  0
    3.5020  -12.9800   18.7990 O   0  0  0  0  0  0  0  0  0  0  0  0
    0.3090  -12.7220   17.9750 C   0  0  2  0  0  0  0  0  0  0  0  0
   -0.8010  -13.4470   17.2090 C   0  0  0  0  0  0  0  0  0  0  0  0
    1.1150  -11.8310   17.0440 C   0  0  0  0  0  0  0  0  0  0  0  0
   -1.7480  -12.5190   16.4790 C   0  0  0  0  0  0  0  0  0  0  0  0
    2.2020  -12.5740   20.5910 N   0  0  0  0  0  0  0  0  0  0  0  0
    3.2920  -11.9480   21.3330 C   0  0  2  0  0  0  0  0  0  0  0  0
    4.4150  -12.9410   21.6050 C   0  0  0  0  0  0  0  0  0  0  0  0
    5.5990  -12.5860   21.5470 O   0  0  0  0  0  0  0  0  0  0  0  0
    2.7620  -11.3630   22.6430 C   0  0  0  0  0  0  0  0  0  0  0  0
    3.7760  -10.7680   23.6230 C   0  0  0  0  0  0  0  0  0  0  0  0
    4.5760   -9.6540   22.9780 C   0  0  0  0  0  0  0  0  0  0  0  0
    3.0740  -10.2600   24.8770 C   0  0  0  0  0  0  0  0  0  0  0  0
    4.0620  -14.1920   21.8970 N   0  0  0  0  0  0  0  0  0  0  0  0
    5.0730  -15.2070   22.1680 C   0  0  2  0  0  0  0  0  0  0  0  0
    5.9080  -15.5000   20.9270 C   0  0  0  0  0  0  0  0  0  0  0  0
    7.1370  -15.6080   21.0090 O   0  0  0  0  0  0  0  0  0  0  0  0
    4.3960  -16.4780   22.6820 C   0  0  0  0  0  0  0  0  0  0  0  0
    5.3510  -17.5280   23.1550 C   0  0  0  0  0  0  0  0  0  0  0  0
    5.8030  -18.5440   22.3420 N   0  0  0  0  0  0  0  0  0  0  0  0
    5.9320  -17.7250   24.3620 C   0  0  0  0  0  0  0  0  0  0  0  0
    6.6240  -19.3200   23.0260 C   0  0  0  0  0  0  0  0  0  0  0  0
    6.7190  -18.8450   24.2550 N   0  0  0  0  0  0  0  0  0  0  0  0
    5.2580  -15.6220   19.7670 N   0  0  0  0  0  0  0  0  0  0  0  0
    5.9870  -15.9090   18.5360 C   0  0  2  0  0  0  0  0  0  0  0  0
    6.8990  -14.7520   18.1490 C   0  0  0  0  0  0  0  0  0  0  0  0
    8.0440  -14.9680   17.7370 O   0  0  0  0  0  0  0  0  0  0  0  0
    5.0030  -16.2180   17.4080 C   0  0  0  0  0  0  0  0  0  0  0  0
    5.6640  -16.5660   16.0840 C   0  0  0  0  0  0  0  0  0  0  0  0
    4.6340  -16.7550   14.9810 C   0  0  0  0  0  0  0  0  0  0  0  0
    3.8650  -15.5390   14.7320 N   0  0  0  0  0  0  0  0  0  0  0  0
    4.2490  -14.5670   13.9110 C   0  0  0  0  0  0  0  0  0  0  0  0
    5.4000  -14.6620   13.2570 N   0  0  0  0  0  0  0  0  0  0  0  0
    3.4850  -13.4970   13.7450 N   0  0  0  0  0  0  0  0  0  0  0  0
    6.4130  -13.5160   18.2790 N   0  0  0  0  0  0  0  0  0  0  0  0
    7.2250  -12.3630   17.9080 C   0  0  2  0  0  0  0  0  0  0  0  0
    8.4280  -12.1990   18.8280 C   0  0  0  0  0  0  0  0  0  0  0  0
    9.4790  -11.7170   18.3900 O   0  0  0  0  0  0  0  0  0  0  0  0
    6.3670  -11.0980   17.9120 C   0  0  0  0  0  0  0  0  0  0  0  0
    5.2710  -11.0920   16.8450 C   0  0  0  0  0  0  0  0  0  0  0  0
    4.4570   -9.8150   16.9060 C   0  0  0  0  0  0  0  0  0  0  0  0
    5.8770  -11.2820   15.4620 C   0  0  0  0  0  0  0  0  0  0  0  0
    8.2980  -12.5910   20.0960 N   0  0  0  0  0  0  0  0  0  0  0  0
    9.4310  -12.5410   21.0120 C   0  0  2  0  0  0  0  0  0  0  0  0
   10.4590  -13.6270   20.7170 C   0  0  0  0  0  0  0  0  0  0  0  0
   11.6090  -13.5090   21.1520 O   0  0  0  0  0  0  0  0  0  0  0  0
    8.9420  -12.6530   22.4590 C   0  0  0  0  0  0  0  0  0  0  0  0
    8.3390  -11.3870   23.0790 C   0  0  0  0  0  0  0  0  0  0  0  0
    7.4870  -11.7150   24.2980 C   0  0  0  0  0  0  0  0  0  0  0  0
    9.4320  -10.4000   23.4540 C   0  0  0  0  0  0  0  0  0  0  0  0
   10.0730  -14.6780   19.9900 N   0  0  0  0  0  0  0  0  0  0  0  0
   11.0180  -15.7290   19.6270 C   0  0  2  0  0  0  0  0  0  0  0  0
   11.8220  -15.3490   18.3880 C   0  0  0  0  0  0  0  0  0  0  0  0
   13.0570  -15.3160   18.4210 O   0  0  0  0  0  0  0  0  0  0  0  0
   10.2780  -17.0500   19.3990 C   0  0  0  0  0  0  0  0  0  0  0  0
    9.9290  -17.7980   20.6690 C   0  0  0  0  0  0  0  0  0  0  0  0
    9.2700  -19.1330   20.3930 C   0  0  0  0  0  0  0  0  0  0  0  0
    8.5690  -19.2970   19.3950 O   0  0  0  0  0  0  0  0  0  0  0  0
    9.4990  -20.1000   21.2750 N   0  0  0  0  0  0  0  0  0  0  0  0
   11.1340  -15.0640   17.2860 N   0  0  0  0  0  0  0  0  0  0  0  0
   11.7900  -14.7280   16.0250 C   0  0  2  0  0  0  0  0  0  0  0  0
   12.6160  -13.4500   16.1440 C   0  0  0  0  0  0  0  0  0  0  0  0
   12.1360  -12.3560   15.8420 O   0  0  0  0  0  0  0  0  0  0  0  0
   10.7520  -14.5790   14.9100 C   0  0  0  0  0  0  0  0  0  0  0  0
   11.3840  -14.2970   13.5600 C   0  0  0  0  0  0  0  0  0  0  0  0
   12.4670  -14.8520   13.2820 O   0  0  0  0  0  0  0  0  0  0  0  0
   10.7980  -13.5180   12.7780 O   0  0  0  0  0  0  0  0  0  0  0  0
  2  1  1  1
  3  2  1  0
  4  3  2  0
  5  2  1  0
  6  5  1  0
  7  6  1  0
  8  7  1  0
  9  8  1  0
 10  3  1  0
 11 10  1  1
 12 11  1  0
 13 12  2  0
 14 11  1  0
 15 14  1  0
 14 16  1  6
 17 15  1  0
 18 12  1  0
 19 18  1  0
 20 19  1  0
 21 20  2  0
 19 22  1  1
 23 22  1  0
 24 23  1  0
 25 23  1  0
 26 20  1  0
 27 26  1  0
 28 27  1  0
 29 28  2  0
 27 30  1  6
 31 30  1  0
 32 31  1  0
 33 31  2  0
 34 32  2  0
 35 34  1  0
 35 33  1  0
 36 28  1  0
 37 36  1  0
 38 37  1  0
 39 38  2  0
 37 40  1  6
 41 40  1  0
 42 41  1  0
 43 42  1  0
 44 43  1  0
 45 44  1  0
 46 44  2  0
 47 38  1  0
 48 47  1  0
 49 48  1  0
 50 49  2  0
 48 51  1  1
 52 51  1  0
 53 52  1  0
 54 52  1  0
 55 49  1  0
 56 55  1  0
 57 56  1  0
 58 57  2  0
 56 59  1  1
 60 59  1  0
 61 60  1  0
 62 60  1  0
 63 57  1  0
 64 63  1  0
 65 64  1  0
 66 65  2  0
 64 67  1  6
 68 67  1  0
 69 68  1  0
 70 69  2  0
 71 69  1  0
 72 65  1  0
 73 72  1  0
 74 73  1  0
 75 74  2  0
 73 76  1  6
 77 76  1  0
 78 77  2  0
 79 77  1  0
M  END
$$$$
5TLP
     RDKit          3D

 49 49  0  0  0  0  0  0  0  0999 V2000
   15.4490    1.1580   36.5270 N   0  0  0  0  0  0  0  0  0  0  0  0
   15.6360    2.5670   36.8570 C   0  0  2  0  0  0  0  0  0  0  0  0
   14.6250    3.0260   37.8950 C   0  0  0  0  0  0  0  0  0  0  0  0
   13.6860    2.3030   38.2230 O   0  0  0  0  0  0  0  0  0  0  0  0
   15.5220    3.4390   35.6040 C   0  0  0  0  0  0  0  0  0  0  0  0
   14.8200    4.2380   38.4150 N   0  0  0  0  0  0  0  0  0  0  0  0
   13.8610    4.7820   39.3700 C   0  0  2  0  0  0  0  0  0  0  0  0
   12.5380    5.0640   38.6800 C   0  0  0  0  0  0  0  0  0  0  0  0
   11.4620    4.8570   39.2570 O   0  0  0  0  0  0  0  0  0  0  0  0
   14.4240    6.0470   40.0390 C   0  0  0  0  0  0  0  0  0  0  0  0
   12.6000    5.5470   37.4370 N   0  0  0  0  0  0  0  0  0  0  0  0
   11.3870    5.7300   36.6490 C   0  0  2  0  0  0  0  0  0  0  0  0
   10.6210    4.4200   36.5180 C   0  0  0  0  0  0  0  0  0  0  0  0
    9.3850    4.4100   36.5530 O   0  0  0  0  0  0  0  0  0  0  0  0
   11.7360    6.2920   35.2680 C   0  0  0  0  0  0  0  0  0  0  0  0
   10.5830    6.6150   34.3180 C   0  0  0  0  0  0  0  0  0  0  0  0
    9.7060    7.7100   34.8870 C   0  0  0  0  0  0  0  0  0  0  0  0
   11.0980    7.0290   32.9530 C   0  0  0  0  0  0  0  0  0  0  0  0
   11.3400    3.3020   36.3750 N   0  0  0  0  0  0  0  0  0  0  0  0
   10.6830    2.0000   36.3080 C   0  0  2  0  0  0  0  0  0  0  0  0
   10.0180    1.6590   37.6340 C   0  0  0  0  0  0  0  0  0  0  0  0
    8.9140    1.1040   37.6600 O   0  0  0  0  0  0  0  0  0  0  0  0
   11.6950    0.9200   35.9220 C   0  0  0  0  0  0  0  0  0  0  0  0
   11.0840   -0.3320   35.3600 C   0  0  0  0  0  0  0  0  0  0  0  0
   10.7350   -1.4140   36.1410 N   0  0  0  0  0  0  0  0  0  0  0  0
   10.8160   -0.6940   34.0820 C   0  0  0  0  0  0  0  0  0  0  0  0
   10.2580   -2.3780   35.3720 C   0  0  0  0  0  0  0  0  0  0  0  0
   10.2970   -1.9660   34.1180 N   0  0  0  0  0  0  0  0  0  0  0  0
   10.6730    1.9910   38.7490 N   0  0  0  0  0  0  0  0  0  0  0  0
   10.1070    1.6820   40.0600 C   0  0  2  0  0  0  0  0  0  0  0  0
    8.8900    2.5460   40.3610 C   0  0  0  0  0  0  0  0  0  0  0  0
    7.9340    2.0820   40.9940 O   0  0  0  0  0  0  0  0  0  0  0  0
   11.1640    1.8590   41.1510 C   0  0  0  0  0  0  0  0  0  0  0  0
    8.9120    3.8080   39.9240 N   0  0  0  0  0  0  0  0  0  0  0  0
    7.7860    4.7020   40.1690 C   0  0  2  0  0  0  0  0  0  0  0  0
    6.5560    4.2800   39.3750 C   0  0  0  0  0  0  0  0  0  0  0  0
    5.4250    4.4980   39.8250 O   0  0  0  0  0  0  0  0  0  0  0  0
    8.1860    6.1420   39.8350 C   0  0  0  0  0  0  0  0  0  0  0  0
    9.3200    6.7040   40.6980 C   0  0  0  0  0  0  0  0  0  0  0  0
   10.0980    7.8040   39.9880 C   0  0  0  0  0  0  0  0  0  0  0  0
    8.7890    7.2120   42.0260 C   0  0  0  0  0  0  0  0  0  0  0  0
    6.7530    3.6740   38.2070 N   0  0  0  0  0  0  0  0  0  0  0  0
    5.6480    3.1580   37.4030 C   0  0  2  0  0  0  0  0  0  0  0  0
    5.1730    1.8000   37.9150 C   0  0  0  0  0  0  0  0  0  0  0  0
    4.0890    1.3390   37.5620 O   0  0  0  0  0  0  0  0  0  0  0  0
    6.0630    3.0500   35.9380 C   0  0  0  0  0  0  0  0  0  0  0  0
    6.2300    4.3680   35.1840 C   0  0  0  0  0  0  0  0  0  0  0  0
    6.9620    4.1510   33.8730 C   0  0  0  0  0  0  0  0  0  0  0  0
    4.8720    4.9980   34.9360 C   0  0  0  0  0  0  0  0  0  0  0  0
  2  1  1  0
  3  2  1  0
  4  3  2  0
  2  5  1  6
  6  3  1  0
  7  6  1  0
  8  7  1  0
  9  8  2  0
  7 10  1  6
 11  8  1  0
 12 11  1  0
 13 12  1  0
 14 13  2  0
 12 15  1  6
 16 15  1  0
 17 16  1  0
 18 16  1  0
 19 13  1  0
 20 19  1  0
 21 20  1  0
 22 21  2  0
 20 23  1  1
 24 23  1  0
 25 24  1  0
 26 24  2  0
 27 25  2  0
 28 27  1  0
 28 26  1  0
 29 21  1  0
 30 29  1  0
 31 30  1  0
 32 31  2  0
 30 33  1  1
 34 31  1  0
 35 34  1  0
 36 35  1  0
 37 36  2  0
 35 38  1  6
 39 38  1  0
 40 39  1  0
 41 39  1  0
 42 36  1  0
 43 42  1  0
 44 43  1  0
 45 44  2  0
 43 46  1  6
 47 46  1  0
 48 47  1  0
 49 47  1  0
M  END
$$$$
5FQS
     RDKit          3D

 27 29  0  0  0  0  0  0  0  0999 V2000
   11.2460   21.6220   65.8500 C   0  0  0  0  0  0  0  0  0  0  0  0
   11.1120   21.8060   64.3260 C   0  0  2  0  0  0  0  0  0  0  0  0
   10.5020   20.5440   63.7220 C   0  0  0  0  0  0  0  0  0  0  0  0
   12.5180   21.9330   63.6450 C   0  0  0  0  0  0  0  0  0  0  0  0
   13.2490   23.0800   64.1580 N   0  0  0  0  0  0  0  0  0  0  0  0
   12.8520   24.3070   63.3530 C   0  0  0  0  0  0  0  0  0  0  0  0
   13.4340   25.5610   64.0310 C   0  0  0  0  0  0  0  0  0  0  0  0
   14.9540   25.3890   64.2950 C   0  0  0  0  0  0  0  0  0  0  0  0
   15.6810   26.5630   64.4640 C   0  0  0  0  0  0  0  0  0  0  0  0
   17.0290   26.4080   64.7360 C   0  0  0  0  0  0  0  0  0  0  0  0
   17.6300   25.1880   64.8180 C   0  0  0  0  0  0  0  0  0  0  0  0
   16.9290   24.0100   64.6290 C   0  0  0  0  0  0  0  0  0  0  0  0
   15.5400   24.1540   64.3550 C   0  0  0  0  0  0  0  0  0  0  0  0
   14.7570   22.8710   64.1820 C   0  0  2  0  0  0  0  0  0  0  0  0
   15.1730   22.2790   62.8110 C   0  0  0  0  0  0  0  0  0  0  0  0
   15.0080   21.9870   65.3770 C   0  0  0  0  0  0  0  0  0  0  0  0
   15.5070   20.7000   65.1960 C   0  0  0  0  0  0  0  0  0  0  0  0
   15.6840   19.8930   66.3160 C   0  0  0  0  0  0  0  0  0  0  0  0
   15.4080   20.3700   67.5960 C   0  0  0  0  0  0  0  0  0  0  0  0
   14.9270   21.6340   67.7630 C   0  0  0  0  0  0  0  0  0  0  0  0
   14.6950   22.4780   66.6500 C   0  0  0  0  0  0  0  0  0  0  0  0
   15.6450   19.4750   68.7900 C   0  0  0  0  0  0  0  0  0  0  0  0
   15.9680   20.0820   69.9590 C   0  0  0  0  0  0  0  0  0  0  0  0
   16.1240   18.9800   71.0520 C   0  0  1  0  0  0  0  0  0  0  0  0
   16.4610   19.3630   72.2040 O   0  0  0  0  0  0  0  0  0  0  0  0
   15.8180   17.8070   70.6820 O   0  0  0  0  0  0  0  0  0  0  0  0
   17.7650   27.5490   64.9670 O   0  0  0  0  0  0  0  0  0  0  0  0
  2  1  1  1
  3  2  1  0
  4  2  1  0
  5  4  1  0
  6  5  1  0
  7  6  1  0
  8  7  1  0
  9  8  1  0
 10  9  1  0
 11 10  1  0
 12 11  1  0
 13  8  1  0
 13 12  1  0
 14 13  1  0
 14  5  1  0
 14 15  1  6
 16 14  1  0
 17 16  1  0
 18 17  1  0
 19 18  1  0
 20 19  1  0
 21 20  1  0
 21 16  1  0
 22 19  1  0
 23 22  1  0
 24 23  1  0
 24 25  1  1
 26 24  1  0
 27 10  1  0
M  END
$$$$
6VPF
     RDKit          3D

 29 31  0  0  0  0  0  0  0  0999 V2000
   15.5840  -13.7970   25.0280 C   0  0  0  0  0  0  0  0  0  0  0  0
   15.3550  -13.5210   22.6180 C   0  0  0  0  0  0  0  0  0  0  0  0
   15.1640  -12.0470   22.9310 C   0  0  0  0  0  0  0  0  0  0  0  0
   14.8530  -11.1590   21.9440 C   0  0  0  0  0  0  0  0  0  0  0  0
   14.6750  -11.6440   20.5190 C   0  0  2  0  0  0  0  0  0  0  0  0
   14.8590  -12.9630   20.2210 C   0  0  0  0  0  0  0  0  0  0  0  0
   15.2080  -13.9660   21.3270 C   0  0  0  0  0  0  0  0  0  0  0  0
   14.3520  -10.5950   19.4140 C   0  0  0  0  0  0  0  0  0  0  0  0
   13.2940  -10.7520   18.5620 C   0  0  0  0  0  0  0  0  0  0  0  0
   12.3300  -11.9460   18.6020 C   0  0  0  0  0  0  0  0  0  0  0  0
   12.1130  -12.6600   17.4410 C   0  0  0  0  0  0  0  0  0  0  0  0
   13.0360   -9.5300   17.3530 Cl  0  0  0  0  0  0  0  0  0  0  0  0
   11.6450  -12.2990   19.7500 C   0  0  0  0  0  0  0  0  0  0  0  0
   10.7610  -13.3770   19.7550 C   0  0  0  0  0  0  0  0  0  0  0  0
   10.5600  -14.0850   18.5720 C   0  0  0  0  0  0  0  0  0  0  0  0
   11.2270  -13.7320   17.4310 C   0  0  0  0  0  0  0  0  0  0  0  0
   15.3180   -9.3720   19.3850 C   0  0  1  0  0  0  0  0  0  0  0  0
   14.9530   -8.0490   19.2550 C   0  0  0  0  0  0  0  0  0  0  0  0
   15.8700   -6.9970   19.2690 C   0  0  0  0  0  0  0  0  0  0  0  0
   17.2060   -7.2090   19.4520 C   0  0  0  0  0  0  0  0  0  0  0  0
   17.6070   -8.5140   19.5970 C   0  0  0  0  0  0  0  0  0  0  0  0
   16.6870   -9.5750   19.5730 C   0  0  0  0  0  0  0  0  0  0  0  0
   15.6910  -14.4130   23.7340 O   0  0  0  0  0  0  0  0  0  0  0  0
   16.7480  -14.1320   25.9510 C   0  0  0  0  0  0  0  0  0  0  0  0
   16.6080  -13.4090   27.1850 N   0  0  0  0  0  0  0  0  0  0  0  0
   16.9220  -14.2290   28.3470 C   0  0  0  0  0  0  0  0  0  0  0  0
   17.7980  -15.4290   28.0040 C   0  0  0  0  0  0  0  0  0  0  0  0
   17.4830  -12.2640   27.1150 C   0  0  0  0  0  0  0  0  0  0  0  0
   16.6850  -10.9870   26.9920 C   0  0  0  0  0  0  0  0  0  0  0  0
  3  2  1  0
  4  3  1  0
  5  4  1  0
  6  5  1  0
  7  6  1  0
  7  2  1  0
  5  8  1  6
  9  8  1  0
 10  9  1  0
 11 10  1  0
 12  9  1  0
 13 10  1  0
 14 13  1  0
 15 14  1  0
 16 15  1  0
 16 11  1  0
 17  8  1  1
 18 17  1  0
 19 18  1  0
 20 19  1  0
 21 20  1  0
 22 17  1  0
 22 21  1  0
 23  2  1  0
 23  1  1  0
 24  1  1  0
 25 24  1  0
 26 25  1  0
 27 26  1  0
 28 25  1  0
 29 28  1  0
M  END
$$$$
8ARQ
     RDKit          3D

 42 43  0  0  0  0  0  0  0  0999 V2000
   12.8720    7.8800   14.4310 N   0  0  0  0  0  0  0  0  0  0  0  0
   13.8250    9.0280   14.5180 C   0  0  2  0  0  0  0  0  0  0  0  0
   13.1990   10.2610   13.8730 C   0  0  0  0  0  0  0  0  0  0  0  0
   12.3020   10.1490   13.0350 O   0  0  0  0  0  0  0  0  0  0  0  0
   15.1700    8.7000   13.8570 C   0  0  0  0  0  0  0  0  0  0  0  0
   15.0610    8.0870   12.4910 C   0  0  0  0  0  0  0  0  0  0  0  0
   14.9550    8.8890   11.3540 C   0  0  0  0  0  0  0  0  0  0  0  0
   15.0790    6.7050   12.3300 C   0  0  0  0  0  0  0  0  0  0  0  0
   14.8480    8.3190   10.0880 C   0  0  0  0  0  0  0  0  0  0  0  0
   14.9670    6.1310   11.0670 C   0  0  0  0  0  0  0  0  0  0  0  0
   14.8610    6.9380    9.9450 C   0  0  0  0  0  0  0  0  0  0  0  0
   13.6160   11.4850   14.2640 N   0  0  0  0  0  0  0  0  0  0  0  0
   13.0340   12.6910   13.6840 C   0  0  2  0  0  0  0  0  0  0  0  0
   13.6130   13.0510   12.3060 C   0  0  0  0  0  0  0  0  0  0  0  0
   14.6740   12.5920   11.9410 O   0  0  0  0  0  0  0  0  0  0  0  0
   13.3520   13.7490   14.7420 C   0  0  0  0  0  0  0  0  0  0  0  0
   14.6800   13.3010   15.2990 C   0  0  0  0  0  0  0  0  0  0  0  0
   14.6070   11.7870   15.3080 C   0  0  0  0  0  0  0  0  0  0  0  0
   12.8820   13.8780   11.5710 N   0  0  0  0  0  0  0  0  0  0  0  0
   13.2460   14.2810   10.2370 C   0  0  2  0  0  0  0  0  0  0  0  0
   14.3650   15.3020   10.2680 C   0  0  0  0  0  0  0  0  0  0  0  0
   14.3160   16.2740   11.0140 O   0  0  0  0  0  0  0  0  0  0  0  0
   12.0330   14.8840    9.5510 C   0  0  0  0  0  0  0  0  0  0  0  0
   15.3690   15.0590    9.4290 N   0  0  0  0  0  0  0  0  0  0  0  0
   16.4270   16.0340    9.0940 C   0  0  1  0  0  0  0  0  0  0  0  0
   17.7220   15.7170    9.8520 C   0  0  1  0  0  0  0  0  0  0  0  0
   17.5240   15.8320   11.3430 C   0  0  0  0  0  0  0  0  0  0  0  0
   18.0760   14.3330    9.5240 O   0  0  0  0  0  0  0  0  0  0  0  0
   19.4990   13.6840    9.8840 P   0  0  0  0  0  0  0  0  0  0  0  0
   19.5670   12.4870    8.9730 O   0  0  0  0  0  0  0  0  0  0  0  0
   19.5090   13.3290   11.3530 O   0  0  0  0  0  0  0  0  0  0  0  0
   20.5730   14.7110    9.5860 O   0  0  0  0  0  0  0  0  0  0  0  0
   16.6640   16.0240    7.5840 C   0  0  0  0  0  0  0  0  0  0  0  0
   16.2970   15.0390    6.9370 O   0  0  0  0  0  0  0  0  0  0  0  0
   17.2480   17.0960    7.0570 N   0  0  0  0  0  0  0  0  0  0  0  0
   17.5330   17.1900    5.6360 C   0  0  2  0  0  0  0  0  0  0  0  0
   18.9740   17.5020    5.3580 C   0  0  0  0  0  0  0  0  0  0  0  0
   19.7240   17.9090    6.2480 O   0  0  0  0  0  0  0  0  0  0  0  0
   16.6800   18.2400    4.9210 C   0  0  0  0  0  0  0  0  0  0  0  0
   15.2250   17.8670    5.0420 C   0  0  0  0  0  0  0  0  0  0  0  0
   16.9560   19.6420    5.4500 C   0  0  0  0  0  0  0  0  0  0  0  0
   19.3860   17.3550    4.1960 O   0  0  0  0  0  0  0  0  0  0  0  0
  2  1  1  6
  3  2  1  0
  4  3  2  0
  5  2  1  0
  6  5  1  0
  7  6  2  0
  8  6  1  0
  9  7  1  0
 10  8  2  0
 11  9  2  0
 11 10  1  0
 12  3  1  0
 13 12  1  0
 13 14  1  6
 15 14  2  0
 16 13  1  0
 17 16  1  0
 18 17  1  0
 18 12  1  0
 19 14  1  0
 20 19  1  0
 21 20  1  0
 22 21  2  0
 20 23  1  1
 24 21  1  0
 25 24  1  6
 26 25  1  0
 26 27  1  1
 28 26  1  0
 29 28  1  0
 30 29  1  0
 31 29  1  0
 32 29  1  0
 33 25  1  0
 34 33  1  0
 35 33  1  0
 36 35  1  1
 37 36  1  0
 38 37  2  0
 39 36  1  0
 40 39  1  0
 41 39  1  0
 42 37  1  0
M  END
$$$$
5DRJ
     RDKit          3D

 22 24  0  0  0  0  0  0  0  0999 V2000
  -20.6220  -30.6840  -10.9670 O   0  0  0  0  0  0  0  0  0  0  0  0
  -20.4530  -29.8840   -9.7530 C   0  0  0  0  0  0  0  0  0  0  0  0
  -20.9460  -30.3420   -8.4950 C   0  0  0  0  0  0  0  0  0  0  0  0
  -20.7930  -29.5900   -7.4220 C   0  0  0  0  0  0  0  0  0  0  0  0
  -20.1350  -28.3660   -7.5200 C   0  0  0  0  0  0  0  0  0  0  0  0
  -19.9360  -27.5190   -6.3030 C   0  0  0  0  0  0  0  0  0  0  0  0
  -20.9910  -26.6250   -5.8010 C   0  0  0  0  0  0  0  0  0  0  0  0
  -20.4500  -25.9290   -4.5820 C   0  0  0  0  0  0  0  0  0  0  0  0
  -21.2510  -24.9990   -3.8370 C   0  0  0  0  0  0  0  0  0  0  0  0
  -19.0810  -26.3180   -4.2540 C   0  0  0  0  0  0  0  0  0  0  0  0
  -18.3440  -25.7480   -3.0290 C   0  0  0  0  0  0  0  0  0  0  0  0
  -17.0560  -25.4130   -3.0180 C   0  0  0  0  0  0  0  0  0  0  0  0
  -16.0140  -25.6160   -4.4290 Cl  0  0  0  0  0  0  0  0  0  0  0  0
  -16.4440  -24.8950   -1.9030 C   0  0  0  0  0  0  0  0  0  0  0  0
  -17.1280  -24.6930   -0.7610 C   0  0  0  0  0  0  0  0  0  0  0  0
  -16.4550  -24.1900    0.2840 O   0  0  0  0  0  0  0  0  0  0  0  0
  -18.4350  -25.0130   -0.7040 C   0  0  0  0  0  0  0  0  0  0  0  0
  -19.0450  -25.5300   -1.8490 C   0  0  0  0  0  0  0  0  0  0  0  0
  -18.6110  -27.3900   -5.3920 S   0  0  0  0  0  0  0  0  0  0  0  0
  -19.6720  -27.9320   -8.7020 C   0  0  0  0  0  0  0  0  0  0  0  0
  -18.8510  -26.4060   -8.7850 Cl  0  0  0  0  0  0  0  0  0  0  0  0
  -19.8300  -28.7060   -9.8270 C   0  0  0  0  0  0  0  0  0  0  0  0
  2  1  1  0
  3  2  1  0
  4  3  1  0
  5  4  1  0
  6  5  1  0
  7  6  1  0
  8  7  1  0
  9  8  1  0
 10  8  1  0
 11 10  1  0
 12 11  1  0
 13 12  1  0
 14 12  1  0
 15 14  1  0
 16 15  1  0
 17 15  1  0
 18 17  1  0
 18 11  1  0
 19  6  1  0
 19 10  1  0
 20  5  1  0
 21 20  1  0
 22 20  1  0
 22  2  1  0
M  END
$$$$
1XP6
     RDKit          3D

 34 38  0  0  0  0  0  0  0  0999 V2000
   31.0270   -0.1900   28.7830 C   0  0  2  0  0  0  0  0  0  0  0  0
   31.2250   -1.6340   28.2420 C   0  0  1  0  0  0  0  0  0  0  0  0
   30.0210   -2.3830   28.5070 O   0  0  0  0  0  0  0  0  0  0  0  0
   28.8010   -1.9190   28.0510 C   0  0  0  0  0  0  0  0  0  0  0  0
   27.8900   -2.9280   27.7530 C   0  0  0  0  0  0  0  0  0  0  0  0
   26.6110   -2.6360   27.2660 C   0  0  0  0  0  0  0  0  0  0  0  0
   26.2660   -1.2640   27.1360 C   0  0  0  0  0  0  0  0  0  0  0  0
   25.0400   -0.9700   26.6450 O   0  0  0  0  0  0  0  0  0  0  0  0
   27.1900   -0.2550   27.4600 C   0  0  0  0  0  0  0  0  0  0  0  0
   28.4850   -0.5530   27.8910 C   0  0  0  0  0  0  0  0  0  0  0  0
   29.5020    0.5530   28.1750 S   0  0  0  0  0  0  0  0  0  0  0  0
   32.3330    0.5290   28.4880 C   0  0  0  0  0  0  0  0  0  0  0  0
   32.5040    1.3730   27.3770 C   0  0  0  0  0  0  0  0  0  0  0  0
   33.7600    1.9730   27.2170 C   0  0  0  0  0  0  0  0  0  0  0  0
   34.7850    1.7270   28.1480 C   0  0  0  0  0  0  0  0  0  0  0  0
   36.0150    2.2430   27.9460 O   0  0  0  0  0  0  0  0  0  0  0  0
   34.5960    0.9020   29.2720 C   0  0  0  0  0  0  0  0  0  0  0  0
   33.3440    0.2940   29.4330 C   0  0  0  0  0  0  0  0  0  0  0  0
   31.5760   -1.8410   26.7630 C   0  0  0  0  0  0  0  0  0  0  0  0
   32.4990   -2.8610   26.4620 C   0  0  0  0  0  0  0  0  0  0  0  0
   32.8860   -3.1410   25.1300 C   0  0  0  0  0  0  0  0  0  0  0  0
   32.3380   -2.4080   24.0670 C   0  0  1  0  0  0  0  0  0  0  0  0
   31.4570   -1.3750   24.3620 C   0  0  0  0  0  0  0  0  0  0  0  0
   31.0550   -1.1170   25.6860 C   0  0  0  0  0  0  0  0  0  0  0  0
   32.7200   -2.6100   22.7790 O   0  0  0  0  0  0  0  0  0  0  0  0
   33.3950   -3.8340   22.4390 C   0  0  0  0  0  0  0  0  0  0  0  0
   33.7950   -3.9440   20.9580 C   0  0  0  0  0  0  0  0  0  0  0  0
   32.6910   -4.0790   19.9940 N   0  0  0  0  0  0  0  0  0  0  0  0
   33.3300   -4.1290   18.6540 C   0  0  0  0  0  0  0  0  0  0  0  0
   32.2840   -3.5570   17.6700 C   0  0  1  0  0  0  0  0  0  0  0  0
   31.8080   -4.6130   16.6500 C   0  0  0  0  0  0  0  0  0  0  0  0
   31.0980   -3.1780   18.5790 C   0  0  2  0  0  0  0  0  0  0  0  0
   30.3090   -1.9930   18.0100 C   0  0  0  0  0  0  0  0  0  0  0  0
   31.7990   -2.9000   19.9220 C   0  0  0  0  0  0  0  0  0  0  0  0
  2  1  1  0
  3  2  1  0
  4  3  1  0
  5  4  1  0
  6  5  1  0
  7  6  1  0
  8  7  1  0
  9  7  1  0
 10  9  1  0
 10  4  1  0
 11 10  1  0
 11  1  1  0
  1 12  1  6
 13 12  1  0
 14 13  1  0
 15 14  1  0
 16 15  1  0
 17 15  1  0
 18 12  1  0
 18 17  1  0
  2 19  1  6
 20 19  1  0
 21 20  1  0
 22 21  1  0
 23 22  1  0
 24 23  1  0
 24 19  1  0
 22 25  1  1
 26 25  1  0
 27 26  1  0
 28 27  1  0
 29 28  1  0
 30 29  1  0
 30 31  1  6
 32 30  1  0
 32 33  1  6
 34 32  1  0
 34 28  1  0
M  END
$$$$
2G5O
     RDKit          3D

 79 79  0  0  0  0  0  0  0  0999 V2000
  -38.7070   17.4530   22.0440 N   0  0  0  0  0  0  0  0  0  0  0  0
  -37.6390   16.4000   22.0130 C   0  0  2  0  0  0  0  0  0  0  0  0
  -37.3190   15.9180   23.4200 C   0  0  0  0  0  0  0  0  0  0  0  0
  -36.7720   16.6680   24.2350 O   0  0  0  0  0  0  0  0  0  0  0  0
  -36.3690   16.9330   21.3470 C   0  0  0  0  0  0  0  0  0  0  0  0
  -35.1700   15.9750   21.3370 C   0  0  0  0  0  0  0  0  0  0  0  0
  -35.1410   15.0520   20.1030 C   0  0  0  0  0  0  0  0  0  0  0  0
  -35.2820   15.8220   18.7890 C   0  0  0  0  0  0  0  0  0  0  0  0
  -36.6210   16.4780   18.7150 N   0  0  0  0  0  0  0  0  0  0  0  0
  -37.6700   14.6630   23.6890 N   0  0  0  0  0  0  0  0  0  0  0  0
  -37.4950   14.0600   25.0000 C   0  0  2  0  0  0  0  0  0  0  0  0
  -36.0210   13.9460   25.3290 C   0  0  0  0  0  0  0  0  0  0  0  0
  -35.6040   14.2380   26.4580 O   0  0  0  0  0  0  0  0  0  0  0  0
  -38.1200   12.6550   25.0520 C   0  0  2  0  0  0  0  0  0  0  0  0
  -39.6300   12.7340   24.8070 C   0  0  0  0  0  0  0  0  0  0  0  0
  -37.8020   11.9720   26.3890 C   0  0  0  0  0  0  0  0  0  0  0  0
  -40.3270   11.3970   24.8570 C   0  0  0  0  0  0  0  0  0  0  0  0
  -35.2420   13.5240   24.3350 N   0  0  0  0  0  0  0  0  0  0  0  0
  -33.8020   13.3560   24.4800 C   0  0  2  0  0  0  0  0  0  0  0  0
  -33.1500   14.6440   24.9370 C   0  0  0  0  0  0  0  0  0  0  0  0
  -32.3580   14.6570   25.8790 O   0  0  0  0  0  0  0  0  0  0  0  0
  -33.1900   12.9350   23.1430 C   0  0  0  0  0  0  0  0  0  0  0  0
  -31.7290   12.4920   23.1320 C   0  0  0  0  0  0  0  0  0  0  0  0
  -31.4830   11.5290   24.2890 C   0  0  0  0  0  0  0  0  0  0  0  0
  -31.4060   11.8390   21.8080 C   0  0  0  0  0  0  0  0  0  0  0  0
  -33.4910   15.7270   24.2470 N   0  0  0  0  0  0  0  0  0  0  0  0
  -32.9750   17.0580   24.5460 C   0  0  2  0  0  0  0  0  0  0  0  0
  -33.2630   17.4220   26.0030 C   0  0  0  0  0  0  0  0  0  0  0  0
  -32.4130   17.9770   26.7010 O   0  0  0  0  0  0  0  0  0  0  0  0
  -33.6220   18.0770   23.5970 C   0  0  0  0  0  0  0  0  0  0  0  0
  -33.0450   19.4510   23.6930 C   0  0  0  0  0  0  0  0  0  0  0  0
  -33.7430   20.5140   24.2270 N   0  0  0  0  0  0  0  0  0  0  0  0
  -31.8450   19.9450   23.3060 C   0  0  0  0  0  0  0  0  0  0  0  0
  -32.9940   21.6020   24.1730 C   0  0  0  0  0  0  0  0  0  0  0  0
  -31.8360   21.2830   23.6210 N   0  0  0  0  0  0  0  0  0  0  0  0
  -34.4670   17.0920   26.4540 N   0  0  0  0  0  0  0  0  0  0  0  0
  -34.8600   17.3480   27.8240 C   0  0  2  0  0  0  0  0  0  0  0  0
  -34.1250   16.4580   28.8310 C   0  0  0  0  0  0  0  0  0  0  0  0
  -33.6880   16.9230   29.8880 O   0  0  0  0  0  0  0  0  0  0  0  0
  -36.3740   17.1880   27.9700 C   0  0  0  0  0  0  0  0  0  0  0  0
  -36.8430   17.3060   29.3930 C   0  0  0  0  0  0  0  0  0  0  0  0
  -38.1190   18.0910   29.4830 C   0  0  0  0  0  0  0  0  0  0  0  0
  -38.3060   18.6140   30.8310 N   0  0  0  0  0  0  0  0  0  0  0  0
  -39.4430   19.1280   31.2730 C   0  0  0  0  0  0  0  0  0  0  0  0
  -40.4940   19.1800   30.4720 N   0  0  0  0  0  0  0  0  0  0  0  0
  -39.5290   19.5770   32.5150 N   0  0  0  0  0  0  0  0  0  0  0  0
  -34.0020   15.1750   28.5030 N   0  0  0  0  0  0  0  0  0  0  0  0
  -33.3450   14.2170   29.3730 C   0  0  2  0  0  0  0  0  0  0  0  0
  -31.8680   14.5670   29.5300 C   0  0  0  0  0  0  0  0  0  0  0  0
  -31.2710   14.2920   30.5670 O   0  0  0  0  0  0  0  0  0  0  0  0
  -33.4820   12.8110   28.7960 C   0  0  0  0  0  0  0  0  0  0  0  0
  -34.3560   11.7140   29.4230 C   0  0  0  0  0  0  0  0  0  0  0  0
  -35.5980   12.2380   30.1630 C   0  0  0  0  0  0  0  0  0  0  0  0
  -34.7420   10.7130   28.3420 C   0  0  0  0  0  0  0  0  0  0  0  0
  -31.2840   15.1610   28.4930 N   0  0  0  0  0  0  0  0  0  0  0  0
  -29.8640   15.5290   28.4940 C   0  0  2  0  0  0  0  0  0  0  0  0
  -29.5280   16.7630   29.3340 C   0  0  0  0  0  0  0  0  0  0  0  0
  -28.3710   16.9970   29.6650 O   0  0  0  0  0  0  0  0  0  0  0  0
  -29.3590   15.7200   27.0600 C   0  0  0  0  0  0  0  0  0  0  0  0
  -28.9230   14.4400   26.3380 C   0  0  0  0  0  0  0  0  0  0  0  0
  -28.8290   14.6550   24.8320 C   0  0  0  0  0  0  0  0  0  0  0  0
  -27.5920   13.9840   26.8960 C   0  0  0  0  0  0  0  0  0  0  0  0
  -30.5250   17.5570   29.6850 N   0  0  0  0  0  0  0  0  0  0  0  0
  -30.2570   18.7030   30.5460 C   0  0  2  0  0  0  0  0  0  0  0  0
  -30.8330   18.5230   31.9470 C   0  0  0  0  0  0  0  0  0  0  0  0
  -30.7120   19.3970   32.7970 O   0  0  0  0  0  0  0  0  0  0  0  0
  -30.7200   20.0110   29.8990 C   0  0  0  0  0  0  0  0  0  0  0  0
  -31.9750   19.9090   29.0600 C   0  0  0  0  0  0  0  0  0  0  0  0
  -32.4540   21.2660   28.5750 C   0  0  0  0  0  0  0  0  0  0  0  0
  -31.8860   22.3020   28.9270 O   0  0  0  0  0  0  0  0  0  0  0  0
  -33.5160   21.2690   27.7740 N   0  0  0  0  0  0  0  0  0  0  0  0
  -31.4360   17.3650   32.1850 N   0  0  0  0  0  0  0  0  0  0  0  0
  -31.9610   17.0290   33.5010 C   0  0  2  0  0  0  0  0  0  0  0  0
  -30.9030   16.3710   34.3830 C   0  0  0  0  0  0  0  0  0  0  0  0
  -30.0370   15.6430   33.8960 O   0  0  0  0  0  0  0  0  0  0  0  0
  -33.1940   16.1260   33.3740 C   0  0  0  0  0  0  0  0  0  0  0  0
  -34.4700   16.9150   33.1040 C   0  0  0  0  0  0  0  0  0  0  0  0
  -34.3830   18.0250   32.5280 O   0  0  0  0  0  0  0  0  0  0  0  0
  -35.5610   16.4280   33.4720 O   0  0  0  0  0  0  0  0  0  0  0  0
  2  1  1  1
  3  2  1  0
  4  3  2  0
  5  2  1  0
  6  5  1  0
  7  6  1  0
  8  7  1  0
  9  8  1  0
 10  3  1  0
 11 10  1  6
 12 11  1  0
 13 12  2  0
 14 11  1  0
 15 14  1  0
 14 16  1  1
 17 15  1  0
 18 12  1  0
 19 18  1  0
 20 19  1  0
 21 20  2  0
 19 22  1  6
 23 22  1  0
 24 23  1  0
 25 23  1  0
 26 20  1  0
 27 26  1  0
 28 27  1  0
 29 28  2  0
 27 30  1  6
 31 30  1  0
 32 31  1  0
 33 31  2  0
 34 32  2  0
 35 34  1  0
 35 33  1  0
 36 28  1  0
 37 36  1  0
 38 37  1  0
 39 38  2  0
 37 40  1  6
 41 40  1  0
 42 41  1  0
 43 42  1  0
 44 43  1  0
 45 44  1  0
 46 44  2  0
 47 38  1  0
 48 47  1  0
 49 48  1  0
 50 49  2  0
 48 51  1  6
 52 51  1  0
 53 52  1  0
 54 52  1  0
 55 49  1  0
 56 55  1  0
 57 56  1  0
 58 57  2  0
 56 59  1  6
 60 59  1  0
 61 60  1  0
 62 60  1  0
 63 57  1  0
 64 63  1  0
 65 64  1  0
 66 65  2  0
 64 67  1  6
 68 67  1  0
 69 68  1  0
 70 69  2  0
 71 69  1  0
 72 65  1  0
 73 72  1  0
 74 73  1  0
 75 74  2  0
 73 76  1  6
 77 76  1  0
 78 77  2  0
 79 77  1  0
M  END
$$$$
8BZ9
     RDKit          3D

 71 72  0  0  0  0  0  0  0  0999 V2000
   12.7060    7.7480   14.8420 N   0  0  0  0  0  0  0  0  0  0  0  0
   13.5960    8.9050   14.7730 C   0  0  2  0  0  0  0  0  0  0  0  0
   12.9070   10.1020   14.1150 C   0  0  0  0  0  0  0  0  0  0  0  0
   12.0250    9.9370   13.2650 O   0  0  0  0  0  0  0  0  0  0  0  0
   14.9020    8.5480   14.0420 C   0  0  0  0  0  0  0  0  0  0  0  0
   14.7060    7.9730   12.6620 C   0  0  0  0  0  0  0  0  0  0  0  0
   14.6180    8.8030   11.5510 C   0  0  0  0  0  0  0  0  0  0  0  0
   14.6260    6.5990   12.4720 C   0  0  0  0  0  0  0  0  0  0  0  0
   14.4390    8.2720   10.2830 C   0  0  0  0  0  0  0  0  0  0  0  0
   14.4470    6.0630   11.2060 C   0  0  0  0  0  0  0  0  0  0  0  0
   14.3570    6.8990   10.1100 C   0  0  0  0  0  0  0  0  0  0  0  0
   13.8340    9.1710   15.6750 H   0  0  0  0  0  0  0  0  0  0  0  0
   15.4360    9.3530   13.9520 H   0  0  0  0  0  0  0  0  0  0  0  0
   15.3820    7.8900   14.5690 H   0  0  0  0  0  0  0  0  0  0  0  0
   14.6800    9.7250   11.6600 H   0  0  0  0  0  0  0  0  0  0  0  0
   14.6940    6.0310   13.2050 H   0  0  0  0  0  0  0  0  0  0  0  0
   14.3750    8.8380    9.5470 H   0  0  0  0  0  0  0  0  0  0  0  0
   14.3880    5.1420   11.0950 H   0  0  0  0  0  0  0  0  0  0  0  0
   14.2410    6.5420    9.2590 H   0  0  0  0  0  0  0  0  0  0  0  0
   13.2990   11.3080   14.5110 N   0  0  0  0  0  0  0  0  0  0  0  0
   12.7000   12.5080   13.9170 C   0  0  2  0  0  0  0  0  0  0  0  0
   13.3100   12.8370   12.5620 C   0  0  0  0  0  0  0  0  0  0  0  0
   14.3740   12.3580   12.1800 O   0  0  0  0  0  0  0  0  0  0  0  0
   13.0210   13.6000   14.9390 C   0  0  0  0  0  0  0  0  0  0  0  0
   14.3340   13.1580   15.5470 C   0  0  0  0  0  0  0  0  0  0  0  0
   14.2880   11.6390   15.5540 C   0  0  0  0  0  0  0  0  0  0  0  0
   11.7390   12.4100   13.8280 H   0  0  0  0  0  0  0  0  0  0  0  0
   13.1110   14.4570   14.4950 H   0  0  0  0  0  0  0  0  0  0  0  0
   12.3220   13.6460   15.6100 H   0  0  0  0  0  0  0  0  0  0  0  0
   15.0720   13.4780   15.0040 H   0  0  0  0  0  0  0  0  0  0  0  0
   14.4120   13.5040   16.4500 H   0  0  0  0  0  0  0  0  0  0  0  0
   15.1570   11.2690   15.3330 H   0  0  0  0  0  0  0  0  0  0  0  0
   13.9980   11.3090   16.4190 H   0  0  0  0  0  0  0  0  0  0  0  0
   12.5950   13.6690   11.8220 N   0  0  0  0  0  0  0  0  0  0  0  0
   12.9920   14.0380   10.4880 C   0  0  2  0  0  0  0  0  0  0  0  0
   14.0970   15.0860   10.4530 C   0  0  0  0  0  0  0  0  0  0  0  0
   14.0400   16.0790   11.1720 O   0  0  0  0  0  0  0  0  0  0  0  0
   11.7820   14.5460    9.6950 C   0  0  0  0  0  0  0  0  0  0  0  0
   11.8620   14.0370   12.0800 H   0  0  0  0  0  0  0  0  0  0  0  0
   13.3460   13.2390   10.0670 H   0  0  0  0  0  0  0  0  0  0  0  0
   12.0690   14.7880    8.8010 H   0  0  0  0  0  0  0  0  0  0  0  0
   11.1170   13.8410    9.6490 H   0  0  0  0  0  0  0  0  0  0  0  0
   11.4120   15.3210   10.1460 H   0  0  0  0  0  0  0  0  0  0  0  0
   15.0880   14.8380    9.5940 N   0  0  0  0  0  0  0  0  0  0  0  0
   16.1550   15.7870    9.2760 C   0  0  1  0  0  0  0  0  0  0  0  0
   17.4740   15.4530   10.0170 C   0  0  1  0  0  0  0  0  0  0  0  0
   17.2860   15.5960   11.5270 C   0  0  0  0  0  0  0  0  0  0  0  0
   17.7670   14.0920    9.6640 O   0  0  0  0  0  0  0  0  0  0  0  0
   19.2060   13.4880   10.0580 P   0  0  0  0  0  0  0  0  0  0  0  0
   19.2810   12.2340    9.0870 O   0  0  0  0  0  0  0  0  0  0  0  0
   19.2260   13.1060   11.4860 O   0  0  0  0  0  0  0  0  0  0  0  0
   20.3200   14.5310    9.7170 O   0  0  0  0  0  0  0  0  0  0  0  0
   16.3730   15.7650    7.7720 C   0  0  0  0  0  0  0  0  0  0  0  0
   15.9760   14.7900    7.1030 O   0  0  0  0  0  0  0  0  0  0  0  0
   16.9380   16.8370    7.2240 N   0  0  0  0  0  0  0  0  0  0  0  0
   17.2180   16.8970    5.7840 C   0  0  2  0  0  0  0  0  0  0  0  0
   18.6650   17.2300    5.5010 C   0  0  0  0  0  0  0  0  0  0  0  0
   19.4410   17.6660    6.3670 O   0  0  0  0  0  0  0  0  0  0  0  0
   16.3200   17.9140    5.0700 C   0  0  0  0  0  0  0  0  0  0  0  0
   14.8870   17.5140    5.1950 C   0  0  0  0  0  0  0  0  0  0  0  0
   16.5700   19.3050    5.6040 C   0  0  0  0  0  0  0  0  0  0  0  0
   19.0870   17.0310    4.3500 O   0  0  0  0  0  0  0  0  0  0  0  0
   17.1690   17.5410    7.6590 H   0  0  0  0  0  0  0  0  0  0  0  0
   17.0350   16.0120    5.4330 H   0  0  0  0  0  0  0  0  0  0  0  0
   16.5330   17.9290    4.1240 H   0  0  0  0  0  0  0  0  0  0  0  0
   14.3390   18.1470    4.7060 H   0  0  0  0  0  0  0  0  0  0  0  0
   14.7740   16.6240    4.8250 H   0  0  0  0  0  0  0  0  0  0  0  0
   14.6390   17.5160    6.1330 H   0  0  0  0  0  0  0  0  0  0  0  0
   15.8870   19.9030    5.2610 H   0  0  0  0  0  0  0  0  0  0  0  0
   16.5340   19.2830    6.5730 H   0  0  0  0  0  0  0  0  0  0  0  0
   17.4460   19.6030    5.3120 H   0  0  0  0  0  0  0  0  0  0  0  0
  2  1  1  0
  3  2  1  0
  4  3  2  0
  5  2  1  0
  6  5  1  0
  7  6  2  0
  8  6  1  0
  9  7  1  0
 10  8  2  0
 11  9  2  0
 11 10  1  0
  2 12  1  1
 13  5  1  0
 14  5  1  0
 15  7  1  0
 16  8  1  0
 17  9  1  0
 18 10  1  0
 19 11  1  0
 20  3  1  0
 21 20  1  0
 22 21  1  0
 23 22  2  0
 24 21  1  0
 25 24  1  0
 26 25  1  0
 26 20  1  0
 21 27  1  6
 28 24  1  0
 29 24  1  0
 30 25  1  0
 31 25  1  0
 32 26  1  0
 33 26  1  0
 34 22  1  0
 35 34  1  0
 36 35  1  0
 37 36  2  0
 38 35  1  0
 39 34  1  0
 35 40  1  6
 41 38  1  0
 42 38  1  0
 43 38  1  0
 44 36  1  0
 45 44  1  6
 46 45  1  0
 46 47  1  1
 48 46  1  0
 49 48  1  0
 50 49  1  0
 51 49  1  0
 52 49  1  0
 53 45  1  0
 54 53  1  0
 55 53  1  0
 56 55  1  0
 57 56  1  0
 58 57  2  0
 59 56  1  0
 60 59  1  0
 61 59  1  0
 62 57  1  0
 63 55  1  0
 56 64  1  6
 65 59  1  0
 66 60  1  0
 67 60  1  0
 68 60  1  0
 69 61  1  0
 70 61  1  0
 71 61  1  0
M  END
$$$$
8BYC
     RDKit          3D

 71 72  0  0  0  0  0  0  0  0999 V2000
   12.2940    8.1210   14.6010 N   0  0  0  0  0  0  0  0  0  0  0  0
   13.3810    9.0980   14.5490 C   0  0  2  0  0  0  0  0  0  0  0  0
   12.9180   10.3380   13.7770 C   0  0  0  0  0  0  0  0  0  0  0  0
   12.2230   10.2350   12.7620 O   0  0  0  0  0  0  0  0  0  0  0  0
   14.6390    8.4760   13.9220 C   0  0  0  0  0  0  0  0  0  0  0  0
   14.4820    8.0830   12.4820 C   0  0  0  0  0  0  0  0  0  0  0  0
   14.7430    8.9930   11.4680 C   0  0  0  0  0  0  0  0  0  0  0  0
   14.0860    6.7950   12.1360 C   0  0  0  0  0  0  0  0  0  0  0  0
   14.6060    8.6280   10.1340 C   0  0  0  0  0  0  0  0  0  0  0  0
   13.9420    6.4250   10.8050 C   0  0  0  0  0  0  0  0  0  0  0  0
   14.2060    7.3440    9.8050 C   0  0  0  0  0  0  0  0  0  0  0  0
   13.6320    9.3770   15.4430 H   0  0  0  0  0  0  0  0  0  0  0  0
   15.3620    9.1200   13.9730 H   0  0  0  0  0  0  0  0  0  0  0  0
   14.8700    7.6770   14.4210 H   0  0  0  0  0  0  0  0  0  0  0  0
   15.0130    9.8570   11.6830 H   0  0  0  0  0  0  0  0  0  0  0  0
   13.9160    6.1720   12.8060 H   0  0  0  0  0  0  0  0  0  0  0  0
   14.7820    9.2470    9.4630 H   0  0  0  0  0  0  0  0  0  0  0  0
   13.6690    5.5630   10.5870 H   0  0  0  0  0  0  0  0  0  0  0  0
   14.1140    7.0990    8.9120 H   0  0  0  0  0  0  0  0  0  0  0  0
   13.2900   11.5170   14.2620 N   0  0  0  0  0  0  0  0  0  0  0  0
   12.7200   12.7450   13.7020 C   0  0  2  0  0  0  0  0  0  0  0  0
   13.3080   13.0810   12.3370 C   0  0  0  0  0  0  0  0  0  0  0  0
   14.3790   12.6230   11.9370 O   0  0  0  0  0  0  0  0  0  0  0  0
   13.0730   13.8050   14.7530 C   0  0  0  0  0  0  0  0  0  0  0  0
   14.3410   13.3060   15.3860 C   0  0  0  0  0  0  0  0  0  0  0  0
   14.2950   11.7880   15.3130 C   0  0  0  0  0  0  0  0  0  0  0  0
   11.7570   12.6740   13.6200 H   0  0  0  0  0  0  0  0  0  0  0  0
   13.2130   14.6630   14.3230 H   0  0  0  0  0  0  0  0  0  0  0  0
   12.3610   13.8730   15.4070 H   0  0  0  0  0  0  0  0  0  0  0  0
   15.1050   13.6470   14.8950 H   0  0  0  0  0  0  0  0  0  0  0  0
   14.3810   13.6020   16.3090 H   0  0  0  0  0  0  0  0  0  0  0  0
   15.1600   11.4300   15.0620 H   0  0  0  0  0  0  0  0  0  0  0  0
   14.0140   11.4120   16.1620 H   0  0  0  0  0  0  0  0  0  0  0  0
   12.5800   13.9200   11.6090 N   0  0  0  0  0  0  0  0  0  0  0  0
   12.9880   14.3010   10.2820 C   0  0  2  0  0  0  0  0  0  0  0  0
   14.1140   15.3430   10.2720 C   0  0  0  0  0  0  0  0  0  0  0  0
   14.0630   16.3430   11.0020 O   0  0  0  0  0  0  0  0  0  0  0  0
   11.7990   14.8540    9.4940 C   0  0  0  0  0  0  0  0  0  0  0  0
   11.8440   14.2800   11.8710 H   0  0  0  0  0  0  0  0  0  0  0  0
   13.3240   13.4980    9.8530 H   0  0  0  0  0  0  0  0  0  0  0  0
   12.0980   15.1020    8.6060 H   0  0  0  0  0  0  0  0  0  0  0  0
   11.1150   14.1690    9.4340 H   0  0  0  0  0  0  0  0  0  0  0  0
   11.4490   15.6320    9.9560 H   0  0  0  0  0  0  0  0  0  0  0  0
   15.1190   15.0730    9.4450 N   0  0  0  0  0  0  0  0  0  0  0  0
   16.1740   16.0320    9.1200 C   0  0  1  0  0  0  0  0  0  0  0  0
   17.5090   15.6970    9.8590 C   0  0  1  0  0  0  0  0  0  0  0  0
   17.3570   15.8920   11.3810 C   0  0  0  0  0  0  0  0  0  0  0  0
   17.7320   14.3380    9.4680 O   0  0  0  0  0  0  0  0  0  0  0  0
   19.2020   13.7340    9.8360 P   0  0  0  0  0  0  0  0  0  0  0  0
   19.2600   12.5220    8.9330 O   0  0  0  0  0  0  0  0  0  0  0  0
   19.1750   13.3240   11.3500 O   0  0  0  0  0  0  0  0  0  0  0  0
   20.3090   14.7810    9.4790 O   0  0  0  0  0  0  0  0  0  0  0  0
   16.3870   16.0310    7.6130 C   0  0  0  0  0  0  0  0  0  0  0  0
   16.0110   15.0720    6.9090 O   0  0  0  0  0  0  0  0  0  0  0  0
   16.9610   17.1080    7.1030 N   0  0  0  0  0  0  0  0  0  0  0  0
   17.2450   17.1940    5.6700 C   0  0  2  0  0  0  0  0  0  0  0  0
   18.6660   17.5860    5.3770 C   0  0  0  0  0  0  0  0  0  0  0  0
   19.4300   17.9990    6.2610 O   0  0  0  0  0  0  0  0  0  0  0  0
   16.3190   18.1950    4.9420 C   0  0  0  0  0  0  0  0  0  0  0  0
   14.9130   17.7810    5.0920 C   0  0  0  0  0  0  0  0  0  0  0  0
   16.5730   19.6230    5.4500 C   0  0  0  0  0  0  0  0  0  0  0  0
   19.0630   17.5000    4.1990 O   0  0  0  0  0  0  0  0  0  0  0  0
   17.1950   17.7990    7.5570 H   0  0  0  0  0  0  0  0  0  0  0  0
   17.0910   16.2980    5.3330 H   0  0  0  0  0  0  0  0  0  0  0  0
   16.5140   18.1990    3.9920 H   0  0  0  0  0  0  0  0  0  0  0  0
   14.3500   18.3870    4.5850 H   0  0  0  0  0  0  0  0  0  0  0  0
   14.8120   16.8770    4.7560 H   0  0  0  0  0  0  0  0  0  0  0  0
   14.6720   17.8150    6.0310 H   0  0  0  0  0  0  0  0  0  0  0  0
   17.0970   19.5790    6.2650 H   0  0  0  0  0  0  0  0  0  0  0  0
   17.0570   20.1180    4.7710 H   0  0  0  0  0  0  0  0  0  0  0  0
   15.7200   20.0510    5.6270 H   0  0  0  0  0  0  0  0  0  0  0  0
  2  1  1  0
  3  2  1  0
  4  3  2  0
  5  2  1  0
  6  5  1  0
  7  6  2  0
  8  6  1  0
  9  7  1  0
 10  8  2  0
 11 10  1  0
 11  9  2  0
  2 12  1  1
 13  5  1  0
 14  5  1  0
 15  7  1  0
 16  8  1  0
 17  9  1  0
 18 10  1  0
 19 11  1  0
 20  3  1  0
 21 20  1  0
 22 21  1  0
 23 22  2  0
 24 21  1  0
 25 24  1  0
 26 25  1  0
 26 20  1  0
 21 27  1  6
 28 24  1  0
 29 24  1  0
 30 25  1  0
 31 25  1  0
 32 26  1  0
 33 26  1  0
 34 22  1  0
 35 34  1  0
 36 35  1  0
 37 36  2  0
 38 35  1  0
 39 34  1  0
 35 40  1  6
 41 38  1  0
 42 38  1  0
 43 38  1  0
 44 36  1  0
 45 44  1  6
 46 45  1  0
 46 47  1  1
 48 46  1  0
 49 48  1  0
 50 49  1  0
 51 49  1  0
 52 49  1  0
 53 45  1  0
 54 53  1  0
 55 53  1  0
 56 55  1  0
 57 56  1  0
 58 57  2  0
 59 56  1  0
 60 59  1  0
 61 59  1  0
 62 57  1  0
 63 55  1  0
 56 64  1  6
 65 59  1  0
 66 60  1  0
 67 60  1  0
 68 60  1  0
 69 61  1  0
 70 61  1  0
 71 61  1  0
M  END
$$$$
6PFM
     RDKit          3D

 60 64  0  0  0  0  0  0  0  0999 V2000
   16.3400   53.6190   43.0600 C   0  0  1  0  0  0  0  0  0  0  0  0
   17.7670   53.3800   42.6870 C   0  0  0  0  0  0  0  0  0  0  0  0
   15.5070   57.4330   40.1510 C   0  0  0  0  0  0  0  0  0  0  0  0
   15.5820   55.6170   41.7460 C   0  0  0  0  0  0  0  0  0  0  0  0
   15.8000   56.4720   42.7780 C   0  0  0  0  0  0  0  0  0  0  0  0
   15.8790   57.8720   42.4840 C   0  0  0  0  0  0  0  0  0  0  0  0
   15.7310   58.3320   41.1720 C   0  0  0  0  0  0  0  0  0  0  0  0
   15.4300   56.0820   40.4230 C   0  0  0  0  0  0  0  0  0  0  0  0
   16.2760   54.5010   44.2870 C   0  0  0  0  0  0  0  0  0  0  0  0
   16.0030   56.8080   45.3840 C   0  0  2  0  0  0  0  0  0  0  0  0
   15.9530   55.9130   44.1480 C   0  0  1  0  0  0  0  0  0  0  0  0
   15.4860   54.1600   41.9430 O   0  0  0  0  0  0  0  0  0  0  0  0
   15.8020   59.6900   40.8300 O   0  0  0  0  0  0  0  0  0  0  0  0
   18.7790   54.3170   42.8930 C   0  0  0  0  0  0  0  0  0  0  0  0
   20.0980   54.0310   42.5540 C   0  0  0  0  0  0  0  0  0  0  0  0
   20.4410   52.8040   42.0040 C   0  0  0  0  0  0  0  0  0  0  0  0
   19.4280   51.8690   41.8100 C   0  0  0  0  0  0  0  0  0  0  0  0
   18.1100   52.1560   42.1510 C   0  0  0  0  0  0  0  0  0  0  0  0
   21.8040   52.5300   41.6850 O   0  0  0  0  0  0  0  0  0  0  0  0
   22.1070   51.7880   40.5280 C   0  0  2  0  0  0  0  0  0  0  0  0
   23.6340   51.7650   40.3250 C   0  0  2  0  0  0  0  0  0  0  0  0
   24.0010   52.6120   39.7040 N   0  0  0  0  0  0  0  0  0  0  0  0
   25.3990   52.5380   39.4150 C   0  0  1  0  0  0  0  0  0  0  0  0
   25.5910   53.8270   39.9690 C   0  0  1  0  0  0  0  0  0  0  0  0
   24.2380   53.8350   40.3970 C   0  0  2  0  0  0  0  0  0  0  0  0
   26.5750   53.8590   41.1290 C   0  0  2  0  0  0  0  0  0  0  0  0
   27.8120   53.5240   40.6650 F   0  0  0  0  0  0  0  0  0  0  0  0
   16.6190   53.7690   45.5920 C   0  0  2  0  0  0  0  0  0  0  0  0
   17.9040   53.8270   46.1300 C   0  0  0  0  0  0  0  0  0  0  0  0
   18.2150   53.1180   47.2860 C   0  0  0  0  0  0  0  0  0  0  0  0
   17.2540   52.3360   47.9000 C   0  0  0  0  0  0  0  0  0  0  0  0
   15.9830   52.2720   47.3560 C   0  0  0  0  0  0  0  0  0  0  0  0
   15.6620   52.9740   46.2050 C   0  0  0  0  0  0  0  0  0  0  0  0
   15.0120   51.4920   47.9850 O   0  0  0  0  0  0  0  0  0  0  0  0
   15.9080   52.6520   43.3440 H   0  0  0  0  0  0  0  0  0  0  0  0
   15.3920   57.7870   39.1330 H   0  0  0  0  0  0  0  0  0  0  0  0
   16.0570   58.5880   43.2780 H   0  0  0  0  0  0  0  0  0  0  0  0
   15.2550   55.3770   39.6180 H   0  0  0  0  0  0  0  0  0  0  0  0
   15.3430   57.6710   45.2430 H   0  0  0  0  0  0  0  0  0  0  0  0
   17.0300   57.1570   45.5400 H   0  0  0  0  0  0  0  0  0  0  0  0
   15.6700   56.2470   46.2640 H   0  0  0  0  0  0  0  0  0  0  0  0
   18.5530   55.2870   43.3200 H   0  0  0  0  0  0  0  0  0  0  0  0
   20.8660   54.7750   42.7220 H   0  0  0  0  0  0  0  0  0  0  0  0
   19.6590   50.8960   41.3890 H   0  0  0  0  0  0  0  0  0  0  0  0
   17.3420   51.4100   41.9880 H   0  0  0  0  0  0  0  0  0  0  0  0
   21.6150   52.2450   39.6620 H   0  0  0  0  0  0  0  0  0  0  0  0
   21.7540   50.7580   40.6460 H   0  0  0  0  0  0  0  0  0  0  0  0
   23.8700   50.8260   39.8080 H   0  0  0  0  0  0  0  0  0  0  0  0
   24.1190   51.7420   41.3100 H   0  0  0  0  0  0  0  0  0  0  0  0
   25.9340   51.7570   39.9720 H   0  0  0  0  0  0  0  0  0  0  0  0
   25.5980   52.5180   38.3370 H   0  0  0  0  0  0  0  0  0  0  0  0
   25.8140   54.5620   39.1920 H   0  0  0  0  0  0  0  0  0  0  0  0
   24.1380   53.7530   41.4840 H   0  0  0  0  0  0  0  0  0  0  0  0
   23.6650   54.6660   39.9730 H   0  0  0  0  0  0  0  0  0  0  0  0
   26.2700   53.1410   41.9000 H   0  0  0  0  0  0  0  0  0  0  0  0
   26.6100   54.8680   41.5540 H   0  0  0  0  0  0  0  0  0  0  0  0
   18.6670   54.4300   45.6490 H   0  0  0  0  0  0  0  0  0  0  0  0
   19.2110   53.1840   47.7090 H   0  0  0  0  0  0  0  0  0  0  0  0
   17.4880   51.7980   48.8120 H   0  0  0  0  0  0  0  0  0  0  0  0
   14.6650   52.9080   45.7830 H   0  0  0  0  0  0  0  0  0  0  0  0
  2  1  1  0
  5  4  1  0
  6  5  1  0
  7  6  1  0
  7  3  1  0
  8  4  1  0
  8  3  1  0
  9  1  1  0
 11  5  1  0
 11 10  1  0
 11  9  1  6
 12  1  1  0
 12  4  1  0
 13  7  1  0
 14  2  1  0
 15 14  1  0
 16 15  1  0
 17 16  1  0
 18 17  1  0
 18  2  1  0
 19 16  1  0
 20 19  1  0
 21 20  1  0
 22 21  1  0
 23 22  1  0
 24 23  1  0
 25 24  1  0
 25 22  1  0
 26 24  1  0
 27 26  1  0
 28  9  1  6
 29 28  1  0
 30 29  1  0
 31 30  1  0
 32 31  1  0
 33 32  1  0
 33 28  1  0
 34 32  1  0
  1 35  1  1
 36  3  1  0
 37  6  1  0
 38  8  1  0
 10 39  1  6
 40 10  1  0
 41 10  1  0
 42 14  1  0
 43 15  1  0
 44 17  1  0
 45 18  1  0
 20 46  1  6
 47 20  1  0
 21 48  1  6
 49 21  1  0
 23 50  1  1
 51 23  1  0
 24 52  1  6
 25 53  1  1
 54 25  1  0
 26 55  1  1
 56 26  1  0
 57 29  1  0
 58 30  1  0
 59 31  1  0
 60 33  1  0
M  END
$$$$
8BX0
     RDKit          3D

 76 77  0  0  0  0  0  0  0  0999 V2000
  -12.4780   -7.9680   14.2620 N   0  0  0  0  0  0  0  0  0  0  0  0
  -13.4010   -9.1030   14.3050 C   0  0  2  0  0  0  0  0  0  0  0  0
  -12.6540  -10.3950   13.9440 C   0  0  0  0  0  0  0  0  0  0  0  0
  -11.6640  -10.3690   13.2090 O   0  0  0  0  0  0  0  0  0  0  0  0
  -14.6000   -8.8620   13.3580 C   0  0  0  0  0  0  0  0  0  0  0  0
  -14.2640   -9.0020   11.8890 C   0  0  0  0  0  0  0  0  0  0  0  0
  -13.4690   -8.0580   11.2450 C   0  0  0  0  0  0  0  0  0  0  0  0
  -14.7430  -10.0770   11.1520 C   0  0  0  0  0  0  0  0  0  0  0  0
  -13.1530   -8.1920    9.8960 C   0  0  0  0  0  0  0  0  0  0  0  0
  -14.4260  -10.2220    9.8040 C   0  0  0  0  0  0  0  0  0  0  0  0
  -13.6340   -9.2760    9.1750 C   0  0  0  0  0  0  0  0  0  0  0  0
  -13.7660   -9.2060   15.1980 H   0  0  0  0  0  0  0  0  0  0  0  0
  -15.2940   -9.5070   13.5640 H   0  0  0  0  0  0  0  0  0  0  0  0
  -14.9320   -7.9610   13.5000 H   0  0  0  0  0  0  0  0  0  0  0  0
  -13.1440   -7.3290   11.7220 H   0  0  0  0  0  0  0  0  0  0  0  0
  -15.2830  -10.7110   11.5660 H   0  0  0  0  0  0  0  0  0  0  0  0
  -12.6200   -7.5550    9.4780 H   0  0  0  0  0  0  0  0  0  0  0  0
  -14.7450  -10.9530    9.3270 H   0  0  0  0  0  0  0  0  0  0  0  0
  -13.4250   -9.3660    8.2730 H   0  0  0  0  0  0  0  0  0  0  0  0
  -13.0970  -11.5290   14.4800 N   0  0  0  0  0  0  0  0  0  0  0  0
  -12.6140  -12.8090   13.9550 C   0  0  2  0  0  0  0  0  0  0  0  0
  -13.2250  -13.0960   12.5880 C   0  0  0  0  0  0  0  0  0  0  0  0
  -14.2980  -12.6000   12.2260 O   0  0  0  0  0  0  0  0  0  0  0  0
  -13.0790  -13.8250   15.0050 C   0  0  0  0  0  0  0  0  0  0  0  0
  -14.2870  -13.2040   15.6260 C   0  0  0  0  0  0  0  0  0  0  0  0
  -14.0670  -11.7110   15.5820 C   0  0  0  0  0  0  0  0  0  0  0  0
  -11.6460  -12.8300   13.8970 H   0  0  0  0  0  0  0  0  0  0  0  0
  -13.3020  -14.6660   14.5760 H   0  0  0  0  0  0  0  0  0  0  0  0
  -12.3810  -13.9630   15.6630 H   0  0  0  0  0  0  0  0  0  0  0  0
  -15.0760  -13.4490   15.1180 H   0  0  0  0  0  0  0  0  0  0  0  0
  -14.3740  -13.5100   16.5430 H   0  0  0  0  0  0  0  0  0  0  0  0
  -14.8960  -11.2470   15.3890 H   0  0  0  0  0  0  0  0  0  0  0  0
  -13.6970  -11.3930   16.4210 H   0  0  0  0  0  0  0  0  0  0  0  0
  -12.5190  -13.9160   11.8240 N   0  0  0  0  0  0  0  0  0  0  0  0
  -12.9550  -14.3030   10.5120 C   0  0  2  0  0  0  0  0  0  0  0  0
  -14.1000  -15.3210   10.4880 C   0  0  0  0  0  0  0  0  0  0  0  0
  -14.0520  -16.3260   11.1980 O   0  0  0  0  0  0  0  0  0  0  0  0
  -11.7660  -14.9010    9.7210 C   0  0  0  0  0  0  0  0  0  0  0  0
  -11.7670  -14.2640   12.0550 H   0  0  0  0  0  0  0  0  0  0  0  0
  -13.2910  -13.4940   10.0950 H   0  0  0  0  0  0  0  0  0  0  0  0
  -12.0710  -15.1570    8.8360 H   0  0  0  0  0  0  0  0  0  0  0  0
  -11.0660  -14.2330    9.6480 H   0  0  0  0  0  0  0  0  0  0  0  0
  -11.4310  -15.6790   10.1930 H   0  0  0  0  0  0  0  0  0  0  0  0
  -15.1030  -15.0450    9.6520 N   0  0  0  0  0  0  0  0  0  0  0  0
  -16.2010  -15.9810    9.3360 C   0  0  1  0  0  0  0  0  0  0  0  0
  -17.5200  -15.6260   10.1190 C   0  0  1  0  0  0  0  0  0  0  0  0
  -17.3050  -15.8370   11.6120 C   0  0  2  0  0  0  0  0  0  0  0  0
  -17.7580  -14.2670    9.7310 O   0  0  0  0  0  0  0  0  0  0  0  0
  -19.2370  -13.6630   10.0760 P   0  0  0  0  0  0  0  0  0  0  0  0
  -19.3110  -12.3620    9.1290 O   0  0  0  0  0  0  0  0  0  0  0  0
  -20.3370  -14.7090    9.6810 O   0  0  0  0  0  0  0  0  0  0  0  0
  -19.2720  -13.2810   11.5040 O   0  0  0  0  0  0  0  0  0  0  0  0
  -16.4120  -15.9420    7.8220 C   0  0  0  0  0  0  0  0  0  0  0  0
  -16.0140  -14.9720    7.1380 O   0  0  0  0  0  0  0  0  0  0  0  0
  -15.9800  -16.8910    9.6240 H   0  0  0  0  0  0  0  0  0  0  0  0
  -18.3850  -16.2490    9.8930 H   0  0  0  0  0  0  0  0  0  0  0  0
  -18.2230  -15.5960   12.1500 H   0  0  0  0  0  0  0  0  0  0  0  0
  -16.5010  -15.1890   11.9590 H   0  0  0  0  0  0  0  0  0  0  0  0
  -17.0390  -16.8770   11.7980 H   0  0  0  0  0  0  0  0  0  0  0  0
  -16.9840  -17.0120    7.2830 N   0  0  0  0  0  0  0  0  0  0  0  0
  -17.2410  -17.0740    5.8510 C   0  0  2  0  0  0  0  0  0  0  0  0
  -18.6610  -17.4780    5.5110 C   0  0  0  0  0  0  0  0  0  0  0  0
  -19.4380  -17.9090    6.3680 O   0  0  0  0  0  0  0  0  0  0  0  0
  -16.2690  -18.0470    5.1430 C   0  0  0  0  0  0  0  0  0  0  0  0
  -14.8600  -17.5990    5.3370 C   0  0  0  0  0  0  0  0  0  0  0  0
  -16.5070  -19.4810    5.6310 C   0  0  0  0  0  0  0  0  0  0  0  0
  -19.0350  -17.3800    4.3250 O   0  0  0  0  0  0  0  0  0  0  0  0
  -17.2310  -17.7090    7.7220 H   0  0  0  0  0  0  0  0  0  0  0  0
  -17.1080  -16.1710    5.5230 H   0  0  0  0  0  0  0  0  0  0  0  0
  -16.4330  -18.0450    4.1870 H   0  0  0  0  0  0  0  0  0  0  0  0
  -14.2710  -18.1850    4.8380 H   0  0  0  0  0  0  0  0  0  0  0  0
  -14.7710  -16.6880    5.0160 H   0  0  0  0  0  0  0  0  0  0  0  0
  -14.6440  -17.6400    6.2820 H   0  0  0  0  0  0  0  0  0  0  0  0
  -15.7800  -20.0440    5.3220 H   0  0  0  0  0  0  0  0  0  0  0  0
  -16.5390  -19.4840    6.6000 H   0  0  0  0  0  0  0  0  0  0  0  0
  -17.3490  -19.8010    5.2710 H   0  0  0  0  0  0  0  0  0  0  0  0
  2  1  1  0
  3  2  1  0
  4  3  2  0
  5  2  1  0
  6  5  1  0
  7  6  2  0
  8  6  1  0
  9  7  1  0
 10  8  2  0
 11 10  1  0
 11  9  2  0
  2 12  1  1
 13  5  1  0
 14  5  1  0
 15  7  1  0
 16  8  1  0
 17  9  1  0
 18 10  1  0
 19 11  1  0
 20  3  1  0
 21 20  1  0
 22 21  1  0
 23 22  2  0
 24 21  1  0
 25 24  1  0
 26 25  1  0
 26 20  1  0
 21 27  1  6
 28 24  1  0
 29 24  1  0
 30 25  1  0
 31 25  1  0
 32 26  1  0
 33 26  1  0
 34 22  1  0
 35 34  1  0
 36 35  1  0
 37 36  2  0
 38 35  1  0
 39 34  1  0
 35 40  1  6
 41 38  1  0
 42 38  1  0
 43 38  1  0
 44 36  1  0
 45 44  1  0
 46 45  1  0
 47 46  1  0
 48 46  1  0
 49 48  1  0
 50 49  1  0
 51 49  1  0
 52 49  1  0
 53 45  1  0
 54 53  1  0
 45 55  1  1
 46 56  1  6
 47 57  1  1
 58 47  1  0
 59 47  1  0
 60 53  1  0
 61 60  1  0
 62 61  1  0
 63 62  2  0
 64 61  1  0
 65 64  1  0
 66 64  1  0
 67 62  1  0
 68 60  1  0
 61 69  1  6
 70 64  1  0
 71 65  1  0
 72 65  1  0
 73 65  1  0
 74 66  1  0
 75 66  1  0
 76 66  1  0
M  END
$$$$
8BXQ
     RDKit          3D

 71 72  0  0  0  0  0  0  0  0999 V2000
  -28.2970   -7.8350  -14.7360 N   0  0  0  0  0  0  0  0  0  0  0  0
  -27.4010   -8.9930  -14.7580 C   0  0  2  0  0  0  0  0  0  0  0  0
  -28.0540  -10.2040  -14.0950 C   0  0  0  0  0  0  0  0  0  0  0  0
  -28.9190  -10.0560  -13.2200 O   0  0  0  0  0  0  0  0  0  0  0  0
  -26.0690   -8.6400  -14.0810 C   0  0  0  0  0  0  0  0  0  0  0  0
  -26.1980   -8.1190  -12.6700 C   0  0  0  0  0  0  0  0  0  0  0  0
  -26.4200   -8.9780  -11.6040 C   0  0  0  0  0  0  0  0  0  0  0  0
  -26.0970   -6.7550  -12.4140 C   0  0  0  0  0  0  0  0  0  0  0  0
  -26.5300   -8.4900  -10.3070 C   0  0  0  0  0  0  0  0  0  0  0  0
  -26.2150   -6.2560  -11.1210 C   0  0  0  0  0  0  0  0  0  0  0  0
  -26.4260   -7.1240  -10.0650 C   0  0  0  0  0  0  0  0  0  0  0  0
  -27.2080   -9.2390  -15.6760 H   0  0  0  0  0  0  0  0  0  0  0  0
  -25.5190   -9.4380  -14.0490 H   0  0  0  0  0  0  0  0  0  0  0  0
  -25.6280   -7.9540  -14.6070 H   0  0  0  0  0  0  0  0  0  0  0  0
  -26.4960   -9.8920  -11.7590 H   0  0  0  0  0  0  0  0  0  0  0  0
  -25.9490   -6.1670  -13.1200 H   0  0  0  0  0  0  0  0  0  0  0  0
  -26.6730   -9.0780   -9.6010 H   0  0  0  0  0  0  0  0  0  0  0  0
  -26.1510   -5.3410  -10.9670 H   0  0  0  0  0  0  0  0  0  0  0  0
  -26.4980   -6.7960   -9.1980 H   0  0  0  0  0  0  0  0  0  0  0  0
  -27.6540  -11.4020  -14.5130 N   0  0  0  0  0  0  0  0  0  0  0  0
  -28.2340  -12.6160  -13.9370 C   0  0  2  0  0  0  0  0  0  0  0  0
  -27.6340  -12.9220  -12.5730 C   0  0  0  0  0  0  0  0  0  0  0  0
  -26.5680  -12.4310  -12.1900 O   0  0  0  0  0  0  0  0  0  0  0  0
  -27.8740  -13.6960  -14.9630 C   0  0  0  0  0  0  0  0  0  0  0  0
  -26.5810  -13.2260  -15.5560 C   0  0  0  0  0  0  0  0  0  0  0  0
  -26.6430  -11.7140  -15.5470 C   0  0  0  0  0  0  0  0  0  0  0  0
  -29.1990  -12.5510  -13.8630 H   0  0  0  0  0  0  0  0  0  0  0  0
  -27.7650  -14.5530  -14.5210 H   0  0  0  0  0  0  0  0  0  0  0  0
  -28.5670  -13.7580  -15.6390 H   0  0  0  0  0  0  0  0  0  0  0  0
  -25.8400  -13.5420  -15.0160 H   0  0  0  0  0  0  0  0  0  0  0  0
  -26.4960  -13.5610  -16.4630 H   0  0  0  0  0  0  0  0  0  0  0  0
  -25.7810  -11.3370  -15.3090 H   0  0  0  0  0  0  0  0  0  0  0  0
  -26.9230  -11.3770  -16.4130 H   0  0  0  0  0  0  0  0  0  0  0  0
  -28.3500  -13.7540  -11.8300 N   0  0  0  0  0  0  0  0  0  0  0  0
  -27.9440  -14.1130  -10.4930 C   0  0  2  0  0  0  0  0  0  0  0  0
  -26.8320  -15.1720  -10.4470 C   0  0  0  0  0  0  0  0  0  0  0  0
  -26.8830  -16.1760  -11.1630 O   0  0  0  0  0  0  0  0  0  0  0  0
  -29.1450  -14.6200   -9.7030 C   0  0  0  0  0  0  0  0  0  0  0  0
  -29.0830  -14.1240  -12.0850 H   0  0  0  0  0  0  0  0  0  0  0  0
  -27.5850  -13.3100  -10.0850 H   0  0  0  0  0  0  0  0  0  0  0  0
  -28.8560  -14.8570   -8.8070 H   0  0  0  0  0  0  0  0  0  0  0  0
  -29.8140  -13.9190   -9.6600 H   0  0  0  0  0  0  0  0  0  0  0  0
  -29.5110  -15.4000  -10.1490 H   0  0  0  0  0  0  0  0  0  0  0  0
  -25.8360  -14.9200   -9.6000 N   0  0  0  0  0  0  0  0  0  0  0  0
  -24.8000  -15.8980   -9.2640 C   0  0  1  0  0  0  0  0  0  0  0  0
  -23.4480  -15.5730   -9.9550 C   0  0  1  0  0  0  0  0  0  0  0  0
  -23.5770  -15.7620  -11.4720 C   0  0  0  0  0  0  0  0  0  0  0  0
  -23.2090  -14.2200   -9.5950 O   0  0  0  0  0  0  0  0  0  0  0  0
  -21.7450  -13.6050   -9.9600 P   0  0  0  0  0  0  0  0  0  0  0  0
  -21.7430  -13.1910  -11.3830 O   0  0  0  0  0  0  0  0  0  0  0  0
  -21.6740  -12.3160   -9.0100 O   0  0  0  0  0  0  0  0  0  0  0  0
  -20.6310  -14.6300   -9.6010 O   0  0  0  0  0  0  0  0  0  0  0  0
  -24.6620  -15.8940   -7.7470 C   0  0  0  0  0  0  0  0  0  0  0  0
  -25.1030  -14.9510   -7.0750 O   0  0  0  0  0  0  0  0  0  0  0  0
  -24.0550  -16.9360   -7.1970 N   0  0  0  0  0  0  0  0  0  0  0  0
  -23.9790  -17.0740   -5.7620 C   0  0  2  0  0  0  0  0  0  0  0  0
  -22.5590  -17.4500   -5.3860 C   0  0  0  0  0  0  0  0  0  0  0  0
  -21.6940  -17.6420   -6.2800 O   0  0  0  0  0  0  0  0  0  0  0  0
  -24.9940  -18.1260   -5.2280 C   0  0  0  0  0  0  0  0  0  0  0  0
  -24.6800  -19.5100   -5.7710 C   0  0  0  0  0  0  0  0  0  0  0  0
  -25.0220  -18.1130   -3.7000 C   0  0  0  0  0  0  0  0  0  0  0  0
  -22.1620  -17.5530   -4.2080 O   0  0  0  0  0  0  0  0  0  0  0  0
  -23.6810  -17.5740   -7.6370 H   0  0  0  0  0  0  0  0  0  0  0  0
  -24.2090  -16.2290   -5.3430 H   0  0  0  0  0  0  0  0  0  0  0  0
  -25.8820  -17.8920   -5.5400 H   0  0  0  0  0  0  0  0  0  0  0  0
  -23.9540  -19.4410   -6.4110 H   0  0  0  0  0  0  0  0  0  0  0  0
  -24.4180  -20.0860   -5.0360 H   0  0  0  0  0  0  0  0  0  0  0  0
  -25.4700  -19.8660   -6.2060 H   0  0  0  0  0  0  0  0  0  0  0  0
  -24.9750  -17.1950   -3.3900 H   0  0  0  0  0  0  0  0  0  0  0  0
  -25.8480  -18.5230   -3.3960 H   0  0  0  0  0  0  0  0  0  0  0  0
  -24.2620  -18.6150   -3.3660 H   0  0  0  0  0  0  0  0  0  0  0  0
  2  1  1  0
  3  2  1  0
  4  3  2  0
  5  2  1  0
  6  5  1  0
  7  6  2  0
  8  6  1  0
  9  7  1  0
 10  8  2  0
 11 10  1  0
 11  9  2  0
  2 12  1  6
 13  5  1  0
 14  5  1  0
 15  7  1  0
 16  8  1  0
 17  9  1  0
 18 10  1  0
 19 11  1  0
 20  3  1  0
 21 20  1  0
 22 21  1  0
 23 22  2  0
 24 21  1  0
 25 24  1  0
 26 20  1  0
 26 25  1  0
 21 27  1  1
 28 24  1  0
 29 24  1  0
 30 25  1  0
 31 25  1  0
 32 26  1  0
 33 26  1  0
 34 22  1  0
 35 34  1  0
 36 35  1  0
 37 36  2  0
 38 35  1  0
 39 34  1  0
 35 40  1  1
 41 38  1  0
 42 38  1  0
 43 38  1  0
 44 36  1  0
 45 44  1  1
 46 45  1  0
 46 47  1  6
 48 46  1  0
 49 48  1  0
 50 49  1  0
 51 49  1  0
 52 49  1  0
 53 45  1  0
 54 53  1  0
 55 53  1  0
 56 55  1  0
 57 56  1  0
 58 57  2  0
 59 56  1  0
 60 59  1  0
 61 59  1  0
 62 57  1  0
 63 55  1  0
 56 64  1  1
 65 59  1  0
 66 60  1  0
 67 60  1  0
 68 60  1  0
 69 61  1  0
 70 61  1  0
 71 61  1  0
M  END
$$$$
8BYB
     RDKit          3D

 71 72  0  0  0  0  0  0  0  0999 V2000
  -12.6680    7.9390  -14.6230 N   0  0  0  0  0  0  0  0  0  0  0  0
  -13.5900    9.0780  -14.6110 C   0  0  2  0  0  0  0  0  0  0  0  0
  -12.9360   10.2960  -13.9600 C   0  0  0  0  0  0  0  0  0  0  0  0
  -12.0660   10.1670  -13.0940 O   0  0  0  0  0  0  0  0  0  0  0  0
  -14.8990    8.6960  -13.8990 C   0  0  0  0  0  0  0  0  0  0  0  0
  -14.7160    8.1610  -12.5040 C   0  0  0  0  0  0  0  0  0  0  0  0
  -14.4660    9.0110  -11.4350 C   0  0  0  0  0  0  0  0  0  0  0  0
  -14.7890    6.7910  -12.2620 C   0  0  0  0  0  0  0  0  0  0  0  0
  -14.2980    8.5050  -10.1510 C   0  0  0  0  0  0  0  0  0  0  0  0
  -14.6110    6.2810  -10.9840 C   0  0  0  0  0  0  0  0  0  0  0  0
  -14.3730    7.1370   -9.9280 C   0  0  0  0  0  0  0  0  0  0  0  0
  -13.8190    9.3250  -15.5200 H   0  0  0  0  0  0  0  0  0  0  0  0
  -15.4600    9.4850  -13.8390 H   0  0  0  0  0  0  0  0  0  0  0  0
  -15.3450    8.0100  -14.4190 H   0  0  0  0  0  0  0  0  0  0  0  0
  -14.4110    9.9280  -11.5800 H   0  0  0  0  0  0  0  0  0  0  0  0
  -14.9610    6.2090  -12.9680 H   0  0  0  0  0  0  0  0  0  0  0  0
  -14.1350    9.0830   -9.4410 H   0  0  0  0  0  0  0  0  0  0  0  0
  -14.6510    5.3640  -10.8390 H   0  0  0  0  0  0  0  0  0  0  0  0
  -14.2630    6.7980   -9.0690 H   0  0  0  0  0  0  0  0  0  0  0  0
  -13.3380   11.4890  -14.3820 N   0  0  0  0  0  0  0  0  0  0  0  0
  -12.7480   12.7030  -13.8130 C   0  0  2  0  0  0  0  0  0  0  0  0
  -13.3380   13.0300  -12.4490 C   0  0  0  0  0  0  0  0  0  0  0  0
  -14.4130   12.5670  -12.0620 O   0  0  0  0  0  0  0  0  0  0  0  0
  -13.0970   13.7780  -14.8480 C   0  0  0  0  0  0  0  0  0  0  0  0
  -14.3870   13.3110  -15.4480 C   0  0  0  0  0  0  0  0  0  0  0  0
  -14.3400   11.7920  -15.4250 C   0  0  0  0  0  0  0  0  0  0  0  0
  -11.7840   12.6260  -13.7380 H   0  0  0  0  0  0  0  0  0  0  0  0
  -13.2060   14.6380  -14.4110 H   0  0  0  0  0  0  0  0  0  0  0  0
  -12.3990   13.8340  -15.5190 H   0  0  0  0  0  0  0  0  0  0  0  0
  -15.1300   13.6380  -14.9180 H   0  0  0  0  0  0  0  0  0  0  0  0
  -14.4590   13.6370  -16.3590 H   0  0  0  0  0  0  0  0  0  0  0  0
  -15.2060   11.4250  -15.1870 H   0  0  0  0  0  0  0  0  0  0  0  0
  -14.0580   11.4430  -16.2850 H   0  0  0  0  0  0  0  0  0  0  0  0
  -12.6020   13.8470  -11.7060 N   0  0  0  0  0  0  0  0  0  0  0  0
  -13.0040   14.2030  -10.3810 C   0  0  2  0  0  0  0  0  0  0  0  0
  -14.1210   15.2590  -10.3520 C   0  0  0  0  0  0  0  0  0  0  0  0
  -14.0540   16.2600  -11.0600 O   0  0  0  0  0  0  0  0  0  0  0  0
  -11.8120   14.7340   -9.5820 C   0  0  0  0  0  0  0  0  0  0  0  0
  -11.8630   14.2040  -11.9610 H   0  0  0  0  0  0  0  0  0  0  0  0
  -13.3460   13.3950   -9.9670 H   0  0  0  0  0  0  0  0  0  0  0  0
  -12.1090   14.9680   -8.6890 H   0  0  0  0  0  0  0  0  0  0  0  0
  -11.1320   14.0440   -9.5330 H   0  0  0  0  0  0  0  0  0  0  0  0
  -11.4560   15.5180  -10.0280 H   0  0  0  0  0  0  0  0  0  0  0  0
  -15.1080   15.0180   -9.4940 N   0  0  0  0  0  0  0  0  0  0  0  0
  -16.1700   15.9790   -9.2030 C   0  0  1  0  0  0  0  0  0  0  0  0
  -17.4900   15.6490   -9.9640 C   0  0  1  0  0  0  0  0  0  0  0  0
  -17.3340   15.8570  -11.4740 C   0  0  0  0  0  0  0  0  0  0  0  0
  -17.7590   14.3010   -9.5840 O   0  0  0  0  0  0  0  0  0  0  0  0
  -19.2190   13.7020   -9.9500 P   0  0  0  0  0  0  0  0  0  0  0  0
  -19.2040   13.2950  -11.3710 O   0  0  0  0  0  0  0  0  0  0  0  0
  -19.3060   12.4180   -8.9950 O   0  0  0  0  0  0  0  0  0  0  0  0
  -20.3380   14.7130   -9.5650 O   0  0  0  0  0  0  0  0  0  0  0  0
  -16.4080   15.9720   -7.7040 C   0  0  0  0  0  0  0  0  0  0  0  0
  -16.0610   14.9990   -7.0010 O   0  0  0  0  0  0  0  0  0  0  0  0
  -16.9550   17.0640   -7.1900 N   0  0  0  0  0  0  0  0  0  0  0  0
  -17.2310   17.1360   -5.7580 C   0  0  2  0  0  0  0  0  0  0  0  0
  -18.6630   17.5100   -5.4180 C   0  0  0  0  0  0  0  0  0  0  0  0
  -19.4640   17.8840   -6.2810 O   0  0  0  0  0  0  0  0  0  0  0  0
  -16.2940   18.1460   -5.0520 C   0  0  0  0  0  0  0  0  0  0  0  0
  -14.8720   17.7320   -5.2300 C   0  0  0  0  0  0  0  0  0  0  0  0
  -16.5410   19.5490   -5.5710 C   0  0  0  0  0  0  0  0  0  0  0  0
  -19.0320   17.4660   -4.2140 O   0  0  0  0  0  0  0  0  0  0  0  0
  -17.1730   17.7650   -7.6390 H   0  0  0  0  0  0  0  0  0  0  0  0
  -17.0810   16.2350   -5.4320 H   0  0  0  0  0  0  0  0  0  0  0  0
  -16.4800   18.1550   -4.1000 H   0  0  0  0  0  0  0  0  0  0  0  0
  -14.3020   18.3400   -4.7340 H   0  0  0  0  0  0  0  0  0  0  0  0
  -14.7620   16.8290   -4.8950 H   0  0  0  0  0  0  0  0  0  0  0  0
  -14.6500   17.7650   -6.1730 H   0  0  0  0  0  0  0  0  0  0  0  0
  -17.1040   19.5000   -6.3590 H   0  0  0  0  0  0  0  0  0  0  0  0
  -16.9830   20.0680   -4.8800 H   0  0  0  0  0  0  0  0  0  0  0  0
  -15.6910   19.9570   -5.7970 H   0  0  0  0  0  0  0  0  0  0  0  0
  2  1  1  0
  3  2  1  0
  4  3  2  0
  5  2  1  0
  6  5  1  0
  7  6  2  0
  8  6  1  0
  9  7  1  0
 10  8  2  0
 11 10  1  0
 11  9  2  0
  2 12  1  6
 13  5  1  0
 14  5  1  0
 15  7  1  0
 16  8  1  0
 17  9  1  0
 18 10  1  0
 19 11  1  0
 20  3  1  0
 21 20  1  0
 22 21  1  0
 23 22  2  0
 24 21  1  0
 25 24  1  0
 26 25  1  0
 26 20  1  0
 21 27  1  1
 28 24  1  0
 29 24  1  0
 30 25  1  0
 31 25  1  0
 32 26  1  0
 33 26  1  0
 34 22  1  0
 35 34  1  0
 36 35  1  0
 37 36  2  0
 38 35  1  0
 39 34  1  0
 35 40  1  1
 41 38  1  0
 42 38  1  0
 43 38  1  0
 44 36  1  0
 45 44  1  1
 46 45  1  0
 46 47  1  6
 48 46  1  0
 49 48  1  0
 50 49  1  0
 51 49  1  0
 52 49  1  0
 53 45  1  0
 54 53  1  0
 55 53  1  0
 56 55  1  0
 57 56  1  0
 58 57  2  0
 59 56  1  0
 60 59  1  0
 61 59  1  0
 62 57  1  0
 63 55  1  0
 56 64  1  1
 65 59  1  0
 66 60  1  0
 67 60  1  0
 68 60  1  0
 69 61  1  0
 70 61  1  0
 71 61  1  0
M  END
$$$$
3HLV
     RDKit          3D

 79 79  0  0  0  0  0  0  0  0999 V2000
    1.8280  -19.2250   -9.9560 N   0  0  0  0  0  0  0  0  0  0  0  0
    2.0270  -17.8190   -9.6280 C   0  0  2  0  0  0  0  0  0  0  0  0
    3.0990  -17.1780  -10.5100 C   0  0  0  0  0  0  0  0  0  0  0  0
    4.1270  -17.7920  -10.8030 O   0  0  0  0  0  0  0  0  0  0  0  0
    2.3770  -17.6550   -8.1450 C   0  0  0  0  0  0  0  0  0  0  0  0
    1.1560  -17.5850   -7.2140 C   0  0  0  0  0  0  0  0  0  0  0  0
    1.3780  -18.3980   -5.9290 C   0  0  0  0  0  0  0  0  0  0  0  0
    1.4620  -19.8980   -6.2450 C   0  0  0  0  0  0  0  0  0  0  0  0
    1.7150  -20.7460   -5.0480 N   0  0  0  0  0  0  0  0  0  0  0  0
    2.8420  -15.9400  -10.9270 N   0  0  0  0  0  0  0  0  0  0  0  0
    3.7320  -15.2100  -11.8240 C   0  0  2  0  0  0  0  0  0  0  0  0
    5.1030  -15.0240  -11.1970 C   0  0  0  0  0  0  0  0  0  0  0  0
    6.1120  -15.3420  -11.8000 O   0  0  0  0  0  0  0  0  0  0  0  0
    3.1620  -13.8040  -12.1890 C   0  0  2  0  0  0  0  0  0  0  0  0
    1.7230  -13.8900  -12.7120 C   0  0  0  0  0  0  0  0  0  0  0  0
    4.0700  -13.0900  -13.1910 C   0  0  0  0  0  0  0  0  0  0  0  0
    0.6660  -13.8970  -11.6300 C   0  0  0  0  0  0  0  0  0  0  0  0
    5.1370  -14.4860   -9.9860 N   0  0  0  0  0  0  0  0  0  0  0  0
    6.3940  -14.3000   -9.2770 C   0  0  2  0  0  0  0  0  0  0  0  0
    7.1860  -15.6110   -9.1930 C   0  0  0  0  0  0  0  0  0  0  0  0
    8.4080  -15.6120   -9.2760 O   0  0  0  0  0  0  0  0  0  0  0  0
    6.1310  -13.7560   -7.8730 C   0  0  0  0  0  0  0  0  0  0  0  0
    7.3980  -13.3690   -7.1090 C   0  0  0  0  0  0  0  0  0  0  0  0
    7.8750  -12.0000   -7.5550 C   0  0  0  0  0  0  0  0  0  0  0  0
    7.1800  -13.3900   -5.6040 C   0  0  0  0  0  0  0  0  0  0  0  0
    6.4900  -16.7300   -9.0340 N   0  0  0  0  0  0  0  0  0  0  0  0
    7.1560  -18.0150   -8.8640 C   0  0  2  0  0  0  0  0  0  0  0  0
    7.9830  -18.3600  -10.0850 C   0  0  0  0  0  0  0  0  0  0  0  0
    9.1470  -18.7640   -9.9900 O   0  0  0  0  0  0  0  0  0  0  0  0
    6.1280  -19.1170   -8.6620 C   0  0  0  0  0  0  0  0  0  0  0  0
    6.7150  -20.3690   -8.1040 C   0  0  0  0  0  0  0  0  0  0  0  0
    6.1880  -21.0160   -7.0080 N   0  0  0  0  0  0  0  0  0  0  0  0
    7.8130  -21.0740   -8.4640 C   0  0  0  0  0  0  0  0  0  0  0  0
    6.9260  -22.0770   -6.7280 C   0  0  0  0  0  0  0  0  0  0  0  0
    7.9200  -22.1320   -7.5950 N   0  0  0  0  0  0  0  0  0  0  0  0
    7.3250  -18.2370  -11.2320 N   0  0  0  0  0  0  0  0  0  0  0  0
    7.9250  -18.4110  -12.5410 C   0  0  2  0  0  0  0  0  0  0  0  0
    9.1290  -17.4780  -12.6860 C   0  0  0  0  0  0  0  0  0  0  0  0
   10.2420  -17.9240  -12.9740 O   0  0  0  0  0  0  0  0  0  0  0  0
    6.8840  -18.0940  -13.6170 C   0  0  0  0  0  0  0  0  0  0  0  0
    5.7270  -19.0910  -13.6910 C   0  0  0  0  0  0  0  0  0  0  0  0
    4.8540  -18.8740  -14.9370 C   0  0  0  0  0  0  0  0  0  0  0  0
    3.8100  -17.8670  -14.7360 N   0  0  0  0  0  0  0  0  0  0  0  0
    2.8830  -17.5540  -15.6410 C   0  0  0  0  0  0  0  0  0  0  0  0
    1.9700  -16.6280  -15.3630 N   0  0  0  0  0  0  0  0  0  0  0  0
    2.8670  -18.1640  -16.8230 N   0  0  0  0  0  0  0  0  0  0  0  0
    8.8930  -16.1850  -12.4680 N   0  0  0  0  0  0  0  0  0  0  0  0
    9.9130  -15.1410  -12.5940 C   0  0  2  0  0  0  0  0  0  0  0  0
   11.1950  -15.4010  -11.7850 C   0  0  0  0  0  0  0  0  0  0  0  0
   12.2770  -14.9410  -12.1640 O   0  0  0  0  0  0  0  0  0  0  0  0
    9.3130  -13.7810  -12.2130 C   0  0  0  0  0  0  0  0  0  0  0  0
    8.3900  -13.1530  -13.2580 C   0  0  0  0  0  0  0  0  0  0  0  0
    7.9550  -11.7490  -12.8800 C   0  0  0  0  0  0  0  0  0  0  0  0
    9.1080  -13.1320  -14.5780 C   0  0  0  0  0  0  0  0  0  0  0  0
   11.0650  -16.1290  -10.6720 N   0  0  0  0  0  0  0  0  0  0  0  0
   12.2010  -16.4540   -9.7920 C   0  0  2  0  0  0  0  0  0  0  0  0
   13.1400  -17.5170  -10.3840 C   0  0  0  0  0  0  0  0  0  0  0  0
   14.3600  -17.3800  -10.3350 O   0  0  0  0  0  0  0  0  0  0  0  0
   11.7130  -16.8790   -8.3870 C   0  0  0  0  0  0  0  0  0  0  0  0
   11.8850  -15.9090   -7.2080 C   0  0  0  0  0  0  0  0  0  0  0  0
   13.2600  -15.3000   -7.2830 C   0  0  0  0  0  0  0  0  0  0  0  0
   10.8730  -14.8120   -7.2310 C   0  0  0  0  0  0  0  0  0  0  0  0
   12.5470  -18.5660  -10.9490 N   0  0  0  0  0  0  0  0  0  0  0  0
   13.2770  -19.6710  -11.5750 C   0  0  2  0  0  0  0  0  0  0  0  0
   13.8450  -19.2860  -12.9420 C   0  0  0  0  0  0  0  0  0  0  0  0
   14.7370  -19.9630  -13.4800 O   0  0  0  0  0  0  0  0  0  0  0  0
   12.3300  -20.8630  -11.7380 C   0  0  0  0  0  0  0  0  0  0  0  0
   13.0090  -22.1610  -12.1390 C   0  0  0  0  0  0  0  0  0  0  0  0
   14.1150  -22.5550  -11.1760 C   0  0  0  0  0  0  0  0  0  0  0  0
   13.8980  -22.6130   -9.9680 O   0  0  0  0  0  0  0  0  0  0  0  0
   15.3060  -22.8290  -11.7060 N   0  0  0  0  0  0  0  0  0  0  0  0
   13.3150  -18.2020  -13.5100 N   0  0  0  0  0  0  0  0  0  0  0  0
   13.6980  -17.7860  -14.8600 C   0  0  2  0  0  0  0  0  0  0  0  0
   14.8810  -16.8490  -14.8010 C   0  0  0  0  0  0  0  0  0  0  0  0
   15.8770  -17.2070  -14.1700 O   0  0  0  0  0  0  0  0  0  0  0  0
   12.5420  -17.1470  -15.6030 C   0  0  0  0  0  0  0  0  0  0  0  0
   12.7980  -17.0300  -17.1020 C   0  0  0  0  0  0  0  0  0  0  0  0
   13.9080  -16.6400  -17.5400 O   0  0  0  0  0  0  0  0  0  0  0  0
   11.8430  -17.3260  -17.8460 O   0  0  0  0  0  0  0  0  0  0  0  0
  2  1  1  6
  3  2  1  0
  4  3  2  0
  5  2  1  0
  6  5  1  0
  7  6  1  0
  8  7  1  0
  9  8  1  0
 10  3  1  0
 11 10  1  1
 12 11  1  0
 13 12  2  0
 14 11  1  0
 15 14  1  0
 14 16  1  6
 17 15  1  0
 18 12  1  0
 19 18  1  0
 20 19  1  0
 21 20  2  0
 19 22  1  1
 23 22  1  0
 24 23  1  0
 25 23  1  0
 26 20  1  0
 27 26  1  0
 28 27  1  0
 29 28  2  0
 27 30  1  6
 31 30  1  0
 32 31  1  0
 33 31  2  0
 34 32  2  0
 35 34  1  0
 35 33  1  0
 36 28  1  0
 37 36  1  0
 38 37  1  0
 39 38  2  0
 37 40  1  6
 41 40  1  0
 42 41  1  0
 43 42  1  0
 44 43  1  0
 45 44  1  0
 46 44  2  0
 47 38  1  0
 48 47  1  0
 49 48  1  0
 50 49  2  0
 48 51  1  1
 52 51  1  0
 53 52  1  0
 54 52  1  0
 55 49  1  0
 56 55  1  0
 57 56  1  0
 58 57  2  0
 56 59  1  1
 60 59  1  0
 61 60  1  0
 62 60  1  0
 63 57  1  0
 64 63  1  0
 65 64  1  0
 66 65  2  0
 64 67  1  6
 68 67  1  0
 69 68  1  0
 70 69  2  0
 71 69  1  0
 72 65  1  0
 73 72  1  0
 74 73  1  0
 75 74  2  0
 73 76  1  1
 77 76  1  0
 78 77  2  0
 79 77  1  0
M  END
$$$$
2BJ4
     RDKit          3D

 29 31  0  0  0  0  0  0  0  0999 V2000
   22.3280   37.8300   26.4730 C   0  0  0  0  0  0  0  0  0  0  0  0
   22.8310   37.4760   27.8720 C   0  0  0  0  0  0  0  0  0  0  0  0
   21.8960   36.5560   28.6910 C   0  0  2  0  0  0  0  0  0  0  0  0
   21.4450   35.3850   28.0690 C   0  0  1  0  0  0  0  0  0  0  0  0
   20.0530   35.2630   27.9140 C   0  0  0  0  0  0  0  0  0  0  0  0
   19.4740   34.1760   27.2650 C   0  0  0  0  0  0  0  0  0  0  0  0
   20.3150   33.2140   26.7010 C   0  0  0  0  0  0  0  0  0  0  0  0
   21.6990   33.3470   26.8270 C   0  0  0  0  0  0  0  0  0  0  0  0
   22.2720   34.4390   27.4850 C   0  0  0  0  0  0  0  0  0  0  0  0
   21.4700   36.9030   29.9820 C   0  0  0  0  0  0  0  0  0  0  0  0
   21.8270   38.1050   30.6100 C   0  0  2  0  0  0  0  0  0  0  0  0
   22.2880   38.1710   31.9230 C   0  0  0  0  0  0  0  0  0  0  0  0
   22.5500   39.4020   32.5310 C   0  0  0  0  0  0  0  0  0  0  0  0
   22.3320   40.5890   31.8520 C   0  0  0  0  0  0  0  0  0  0  0  0
   22.5760   41.7880   32.4750 O   0  0  0  0  0  0  0  0  0  0  0  0
   21.8170   40.5380   30.5550 C   0  0  0  0  0  0  0  0  0  0  0  0
   21.5570   39.3150   29.9580 C   0  0  0  0  0  0  0  0  0  0  0  0
   20.6680   36.0650   30.8100 C   0  0  2  0  0  0  0  0  0  0  0  0
   19.5320   36.5250   31.4830 C   0  0  0  0  0  0  0  0  0  0  0  0
   18.8410   35.6580   32.3350 C   0  0  0  0  0  0  0  0  0  0  0  0
   19.2900   34.3530   32.5780 C   0  0  0  0  0  0  0  0  0  0  0  0
   18.6420   33.4890   33.4240 O   0  0  0  0  0  0  0  0  0  0  0  0
   17.6270   34.0990   34.1790 C   0  0  0  0  0  0  0  0  0  0  0  0
   16.9310   32.9010   34.8220 C   0  0  0  0  0  0  0  0  0  0  0  0
   16.3480   33.3540   36.0830 N   0  0  0  0  0  0  0  0  0  0  0  0
   15.3510   34.4330   35.8490 C   0  0  0  0  0  0  0  0  0  0  0  0
   15.7640   32.1680   36.7430 C   0  0  0  0  0  0  0  0  0  0  0  0
   20.4560   33.9020   31.9590 C   0  0  0  0  0  0  0  0  0  0  0  0
   21.1330   34.7600   31.0820 C   0  0  0  0  0  0  0  0  0  0  0  0
  2  1  1  0
  3  2  1  6
  4  3  1  0
  4  5  1  6
  6  5  1  0
  7  6  1  0
  8  7  1  0
  9  8  1  0
  9  4  1  0
 10  3  1  0
 11 10  1  1
 12 11  1  0
 13 12  1  0
 14 13  1  0
 15 14  1  0
 16 14  1  0
 17 11  1  0
 17 16  1  0
 18 10  1  1
 19 18  1  0
 20 19  1  0
 21 20  1  0
 22 21  1  0
 23 22  1  0
 24 23  1  0
 25 24  1  0
 26 25  1  0
 27 25  1  0
 28 21  1  0
 29 28  1  0
 29 18  1  0
M  END
$$$$
6PIT
     RDKit          3D

 74 78  0  0  0  0  0  0  0  0999 V2000
   -7.1920   17.0500   21.4640 N   0  0  0  0  0  0  0  0  0  0  0  0
   -7.3450   17.7320   22.7270 C   0  0  2  0  0  0  0  0  0  0  0  0
   -7.3430   16.7360   23.9840 C   0  0  0  0  0  0  0  0  0  0  0  0
   -6.8730   17.0630   25.0310 O   0  0  0  0  0  0  0  0  0  0  0  0
   -8.4580   18.7990   22.7610 C   0  0  0  0  0  0  0  0  0  0  0  0
   -7.8260   15.5340   23.8060 N   0  0  0  0  0  0  0  0  0  0  0  0
   -7.9460   14.6330   24.9360 C   0  0  2  0  0  0  0  0  0  0  0  0
   -6.6450   14.3850   25.7020 C   0  0  0  0  0  0  0  0  0  0  0  0
   -6.5960   14.5550   26.9010 O   0  0  0  0  0  0  0  0  0  0  0  0
   -8.5960   13.3220   24.4970 C   0  0  0  0  0  0  0  0  0  0  0  0
   -9.5820   12.7260   25.5020 C   0  0  0  0  0  0  0  0  0  0  0  0
   -9.0950   12.8180   26.9470 C   0  0  0  0  0  0  0  0  0  0  0  0
   -9.6870   11.7420   27.8450 C   0  0  0  0  0  0  0  0  0  0  0  0
   -9.2750   11.8870   29.2820 N   0  0  0  0  0  0  0  0  0  0  0  0
   -5.6150   13.9540   24.9770 N   0  0  0  0  0  0  0  0  0  0  0  0
   -4.3020   13.5870   25.4980 C   0  0  2  0  0  0  0  0  0  0  0  0
   -3.6410   14.8630   25.9740 C   0  0  0  0  0  0  0  0  0  0  0  0
   -3.0240   14.9060   26.9970 O   0  0  0  0  0  0  0  0  0  0  0  0
   -3.4710   12.9270   24.3910 C   0  0  0  0  0  0  0  0  0  0  0  0
   -2.5700   11.7150   24.5980 C   0  0  0  0  0  0  0  0  0  0  0  0
   -1.7270   11.4410   23.3730 C   0  0  0  0  0  0  0  0  0  0  0  0
   -1.6930   11.7940   25.8060 C   0  0  0  0  0  0  0  0  0  0  0  0
   -3.8070   15.8970   25.1740 N   0  0  0  0  0  0  0  0  0  0  0  0
   -3.4110   17.2460   25.4750 C   0  0  2  0  0  0  0  0  0  0  0  0
   -3.8210   17.6620   26.8750 C   0  0  0  0  0  0  0  0  0  0  0  0
   -3.1030   18.3990   27.5220 O   0  0  0  0  0  0  0  0  0  0  0  0
   -4.1080   18.1560   24.5030 C   0  0  0  0  0  0  0  0  0  0  0  0
   -3.2820   18.5420   23.3340 C   0  0  0  0  0  0  0  0  0  0  0  0
   -3.5110   18.0540   22.0720 N   0  0  0  0  0  0  0  0  0  0  0  0
   -2.2480   19.3980   23.2230 C   0  0  0  0  0  0  0  0  0  0  0  0
   -2.6390   18.5760   21.2320 C   0  0  0  0  0  0  0  0  0  0  0  0
   -1.8650   19.4000   21.9080 N   0  0  0  0  0  0  0  0  0  0  0  0
   -4.9270   17.1710   27.3880 N   0  0  0  0  0  0  0  0  0  0  0  0
   -5.2290   17.5030   28.7600 C   0  0  2  0  0  0  0  0  0  0  0  0
   -4.5510   16.5360   29.7570 C   0  0  0  0  0  0  0  0  0  0  0  0
   -3.5790   16.9030   30.3700 O   0  0  0  0  0  0  0  0  0  0  0  0
   -6.7170   17.6620   28.9900 C   0  0  0  0  0  0  0  0  0  0  0  0
   -9.4560   12.3560   30.6200 C   0  0  1  0  0  0  0  0  0  0  0  0
   -8.4270   11.4590   31.3670 C   0  0  0  0  0  0  0  0  0  0  0  0
   -7.0190   10.7720   30.7390 N   0  0  0  0  0  0  0  0  0  0  0  0
   -6.7980   10.4460   32.0170 C   0  0  0  0  0  0  0  0  0  0  0  0
   -7.6540   10.0120   32.7170 O   0  0  0  0  0  0  0  0  0  0  0  0
   -5.8320   11.2140   30.3050 C   0  0  0  0  0  0  0  0  0  0  0  0
   -4.7280   11.2320   31.3390 C   0  0  2  0  0  0  0  0  0  0  0  0
   -5.3900   10.6490   32.5500 C   0  0  1  0  0  0  0  0  0  0  0  0
   -5.6600   11.5900   29.1770 O   0  0  0  0  0  0  0  0  0  0  0  0
  -10.1890   13.4480   31.0350 O   0  0  0  0  0  0  0  0  0  0  0  0
   -4.1220   15.2210   29.6840 N   0  0  0  0  0  0  0  0  0  0  0  0
   -3.5770   14.5380   30.7920 C   0  0  1  0  0  0  0  0  0  0  0  0
   -3.2040   13.1780   30.9780 C   0  0  0  0  0  0  0  0  0  0  0  0
   -4.3590   12.5470   31.7840 C   0  0  2  0  0  0  0  0  0  0  0  0
   -4.1080   12.3270   33.0920 O   0  0  0  0  0  0  0  0  0  0  0  0
   -5.2450   11.6980   33.5110 C   0  0  1  0  0  0  0  0  0  0  0  0
   -6.0030   12.8980   33.2430 C   0  0  0  0  0  0  0  0  0  0  0  0
   -5.4680   13.4360   32.0610 C   0  0  0  0  0  0  0  0  0  0  0  0
   -2.1880   14.9870   30.9320 C   0  0  0  0  0  0  0  0  0  0  0  0
   -1.3620   14.9460   32.0110 O   0  0  0  0  0  0  0  0  0  0  0  0
   -1.4750   15.5390   29.7940 N   0  0  0  0  0  0  0  0  0  0  0  0
   -0.2030   16.2840   30.0500 C   0  0  2  0  0  0  0  0  0  0  0  0
   -0.4700   17.7200   30.4210 C   0  0  0  0  0  0  0  0  0  0  0  0
    0.4290   18.5300   30.3820 O   0  0  0  0  0  0  0  0  0  0  0  0
    0.5350   16.1950   28.7230 C   0  0  0  0  0  0  0  0  0  0  0  0
    0.6370   14.8210   28.0830 C   0  0  0  0  0  0  0  0  0  0  0  0
    0.4140   14.8710   26.6000 C   0  0  0  0  0  0  0  0  0  0  0  0
    1.9850   14.2180   28.3590 C   0  0  0  0  0  0  0  0  0  0  0  0
   -1.7530   18.0570   30.7660 N   0  0  0  0  0  0  0  0  0  0  0  0
   -2.1620   19.2680   31.3920 C   0  0  2  0  0  0  0  0  0  0  0  0
   -1.3860   20.5020   30.8970 C   0  0  0  0  0  0  0  0  0  0  0  0
   -1.7600   21.1430   29.9210 O   0  0  0  0  0  0  0  0  0  0  0  0
   -2.0620   19.1770   32.9280 C   0  0  0  0  0  0  0  0  0  0  0  0
   -1.1780   18.0750   33.4830 C   0  0  0  0  0  0  0  0  0  0  0  0
   -1.9820   16.9450   34.1060 C   0  0  0  0  0  0  0  0  0  0  0  0
   -3.1900   16.9120   33.9780 O   0  0  0  0  0  0  0  0  0  0  0  0
   -1.3030   16.0000   34.7740 N   0  0  0  0  0  0  0  0  0  0  0  0
  2  1  1  0
  3  2  1  0
  4  3  2  0
  2  5  1  6
  6  3  1  0
  7  6  1  6
  8  7  1  0
  9  8  2  0
 10  7  1  0
 11 10  1  0
 12 11  1  0
 13 12  1  0
 14 13  1  0
 15  8  1  0
 16 15  1  0
 17 16  1  0
 18 17  2  0
 16 19  1  6
 20 19  1  0
 21 20  1  0
 22 20  1  0
 23 17  1  0
 24 23  1  0
 25 24  1  0
 26 25  2  0
 24 27  1  6
 28 27  1  0
 29 28  1  0
 30 28  2  0
 31 29  2  0
 32 31  1  0
 32 30  1  0
 33 25  1  0
 34 33  1  0
 35 34  1  0
 36 35  2  0
 34 37  1  6
 38 14  1  0
 39 38  1  0
 40 39  1  0
 41 40  1  0
 42 41  1  0
 43 40  1  0
 44 43  1  6
 45 41  1  6
 45 44  1  0
 46 43  1  0
 38 47  1  6
 48 35  1  0
 49 48  1  0
 50 49  1  0
 51 50  1  6
 51 44  1  0
 52 51  1  0
 53 45  1  0
 53 52  1  0
 53 54  1  6
 55 54  1  0
 55 51  1  0
 49 56  1  6
 57 56  1  0
 58 56  1  0
 59 58  1  0
 60 59  1  0
 61 60  2  0
 59 62  1  6
 63 62  1  0
 64 63  1  0
 65 63  1  0
 66 60  1  0
 67 66  1  0
 68 67  1  0
 69 68  2  0
 67 70  1  1
 71 70  1  0
 72 71  1  0
 73 72  2  0
 74 72  1  0
M  END
$$$$
2POG
     RDKit          3D

 21 24  0  0  0  0  0  0  0  0999 V2000
   14.5050   51.0830   58.9950 C   0  0  0  0  0  0  0  0  0  0  0  0
   15.8900   50.8660   58.6040 C   0  0  0  0  0  0  0  0  0  0  0  0
   16.9020   51.3380   59.2370 O   0  0  0  0  0  0  0  0  0  0  0  0
   16.0760   50.0670   57.4220 C   0  0  0  0  0  0  0  0  0  0  0  0
   15.0010   49.5080   56.6680 C   0  0  0  0  0  0  0  0  0  0  0  0
   13.6700   49.7320   57.0740 C   0  0  0  0  0  0  0  0  0  0  0  0
   13.4230   50.5100   58.2250 C   0  0  0  0  0  0  0  0  0  0  0  0
   12.0970   50.6770   58.5540 O   0  0  0  0  0  0  0  0  0  0  0  0
   11.7640   51.9600   59.1550 C   0  0  2  0  0  0  0  0  0  0  0  0
   12.6450   52.2650   60.4200 C   0  0  2  0  0  0  0  0  0  0  0  0
   14.1540   51.9210   60.2370 C   0  0  1  0  0  0  0  0  0  0  0  0
   14.5790   51.2410   61.5600 C   0  0  0  0  0  0  0  0  0  0  0  0
   13.4980   51.5960   62.5590 C   0  0  0  0  0  0  0  0  0  0  0  0
   12.2370   51.5520   61.7220 C   0  0  0  0  0  0  0  0  0  0  0  0
   10.2580   52.0450   59.4310 C   0  0  0  0  0  0  0  0  0  0  0  0
    9.4580   50.8660   59.3060 C   0  0  0  0  0  0  0  0  0  0  0  0
    8.0670   50.9000   59.5580 C   0  0  0  0  0  0  0  0  0  0  0  0
    7.3750   52.0940   59.9470 C   0  0  0  0  0  0  0  0  0  0  0  0
    6.1260   52.1100   60.1730 O   0  0  0  0  0  0  0  0  0  0  0  0
    8.2010   53.2630   60.0640 C   0  0  0  0  0  0  0  0  0  0  0  0
    9.6070   53.2550   59.8170 C   0  0  0  0  0  0  0  0  0  0  0  0
  2  1  1  0
  3  2  1  0
  4  2  1  0
  5  4  1  0
  6  5  1  0
  7  6  1  0
  7  1  1  0
  8  7  1  0
  9  8  1  0
 10  9  1  0
 11  1  1  0
 11 10  1  0
 11 12  1  1
 13 12  1  0
 14 13  1  0
 10 14  1  1
  9 15  1  1
 16 15  1  0
 17 16  1  0
 18 17  1  0
 19 18  1  0
 20 18  1  0
 21 15  1  0
 21 20  1  0
M  END
$$$$
5N10
     RDKit          3D

 76 77  0  0  0  0  0  0  0  0999 V2000
   22.3440    2.8710   27.5640 N   0  0  0  0  0  0  0  0  0  0  0  0
   23.1660    2.7130   26.3620 C   0  0  2  0  0  0  0  0  0  0  0  0
   24.3990    3.5920   26.4690 C   0  0  0  0  0  0  0  0  0  0  0  0
   24.3620    4.6340   27.1220 O   0  0  0  0  0  0  0  0  0  0  0  0
   22.3580    3.0630   25.1070 C   0  0  0  0  0  0  0  0  0  0  0  0
   21.3200    2.0280   24.7580 C   0  0  0  0  0  0  0  0  0  0  0  0
   20.0570    2.0760   25.3330 C   0  0  0  0  0  0  0  0  0  0  0  0
   21.6170    0.9940   23.8660 C   0  0  0  0  0  0  0  0  0  0  0  0
   19.0980    1.1140   25.0200 C   0  0  0  0  0  0  0  0  0  0  0  0
   20.6680    0.0250   23.5500 C   0  0  0  0  0  0  0  0  0  0  0  0
   19.4110    0.0810   24.1250 C   0  0  0  0  0  0  0  0  0  0  0  0
   23.4550    1.7900   26.2900 H   0  0  0  0  0  0  0  0  0  0  0  0
   21.9020    3.9070   25.2530 H   0  0  0  0  0  0  0  0  0  0  0  0
   22.9650    3.1420   24.3550 H   0  0  0  0  0  0  0  0  0  0  0  0
   19.8480    2.7580   25.9300 H   0  0  0  0  0  0  0  0  0  0  0  0
   22.4620    0.9510   23.4810 H   0  0  0  0  0  0  0  0  0  0  0  0
   18.2530    1.1540   25.4080 H   0  0  0  0  0  0  0  0  0  0  0  0
   20.8780   -0.6570   22.9520 H   0  0  0  0  0  0  0  0  0  0  0  0
   18.7720   -0.5610   23.9120 H   0  0  0  0  0  0  0  0  0  0  0  0
   25.5040    3.1750   25.8360 N   0  0  0  0  0  0  0  0  0  0  0  0
   26.7010    4.0150   25.8900 C   0  0  2  0  0  0  0  0  0  0  0  0
   26.5450    5.2490   25.0100 C   0  0  0  0  0  0  0  0  0  0  0  0
   25.7000    5.2870   24.1110 O   0  0  0  0  0  0  0  0  0  0  0  0
   27.7980    3.0910   25.3730 C   0  0  0  0  0  0  0  0  0  0  0  0
   27.0720    2.1800   24.4310 C   0  0  0  0  0  0  0  0  0  0  0  0
   25.7160    1.9570   25.0410 C   0  0  0  0  0  0  0  0  0  0  0  0
   26.8970    4.2810   26.8020 H   0  0  0  0  0  0  0  0  0  0  0  0
   28.4730    3.6070   24.9060 H   0  0  0  0  0  0  0  0  0  0  0  0
   28.1860    2.5930   26.1090 H   0  0  0  0  0  0  0  0  0  0  0  0
   26.9900    2.6070   23.5640 H   0  0  0  0  0  0  0  0  0  0  0  0
   27.5530    1.3410   24.3540 H   0  0  0  0  0  0  0  0  0  0  0  0
   25.0410    1.8820   24.3480 H   0  0  0  0  0  0  0  0  0  0  0  0
   25.7270    1.1750   25.6150 H   0  0  0  0  0  0  0  0  0  0  0  0
   27.3570    6.2660   25.2720 N   0  0  0  0  0  0  0  0  0  0  0  0
   27.2480    7.5080   24.5400 C   0  0  2  0  0  0  0  0  0  0  0  0
   27.9250    7.3800   23.1980 C   0  0  0  0  0  0  0  0  0  0  0  0
   29.0250    6.8190   23.1060 O   0  0  0  0  0  0  0  0  0  0  0  0
   27.8690    8.6650   25.3220 C   0  0  0  0  0  0  0  0  0  0  0  0
   27.9770    6.2570   25.8680 H   0  0  0  0  0  0  0  0  0  0  0  0
   26.3120    7.7100   24.3910 H   0  0  0  0  0  0  0  0  0  0  0  0
   27.7780    9.4800   24.8040 H   0  0  0  0  0  0  0  0  0  0  0  0
   27.4050    8.7580   26.1690 H   0  0  0  0  0  0  0  0  0  0  0  0
   28.8070    8.4740   25.4770 H   0  0  0  0  0  0  0  0  0  0  0  0
   27.2900    7.9590   22.1750 N   0  0  0  0  0  0  0  0  0  0  0  0
   27.8870    8.1140   20.8490 C   0  0  1  0  0  0  0  0  0  0  0  0
   27.3340    7.0910   19.8720 C   0  0  1  0  0  0  0  0  0  0  0  0
   27.7930    5.7020   20.2860 C   0  0  2  0  0  0  0  0  0  0  0  0
   25.9040    7.1950   19.9250 O   0  0  0  0  0  0  0  0  0  0  0  0
   25.0450    6.4320   18.7790 P   0  0  0  0  0  0  0  0  0  0  0  0
   25.6690    6.5550   17.3620 O   0  0  0  0  0  0  0  0  0  0  0  0
   23.6400    7.1850   18.8770 O   0  0  0  0  0  0  0  0  0  0  0  0
   24.8540    5.0010   19.1460 O   0  0  0  0  0  0  0  0  0  0  0  0
   27.5390    9.5200   20.3740 C   0  0  0  0  0  0  0  0  0  0  0  0
   26.6140   10.1750   20.9050 O   0  0  0  0  0  0  0  0  0  0  0  0
   28.8610    8.0200   20.9010 H   0  0  0  0  0  0  0  0  0  0  0  0
   27.6850    7.3140   18.8650 H   0  0  0  0  0  0  0  0  0  0  0  0
   27.3980    4.9650   19.5870 H   0  0  0  0  0  0  0  0  0  0  0  0
   27.4300    5.4820   21.2890 H   0  0  0  0  0  0  0  0  0  0  0  0
   28.8820    5.6610   20.2770 H   0  0  0  0  0  0  0  0  0  0  0  0
   28.2860    9.9980   19.3890 N   0  0  0  0  0  0  0  0  0  0  0  0
   28.0920   11.3510   18.8480 C   0  0  2  0  0  0  0  0  0  0  0  0
   28.0340   11.3630   17.3360 C   0  0  0  0  0  0  0  0  0  0  0  0
   28.3930   10.4010   16.6560 O   0  0  0  0  0  0  0  0  0  0  0  0
   29.2220   12.3330   19.2410 C   0  0  0  0  0  0  0  0  0  0  0  0
   29.2590   12.5130   20.7250 C   0  0  0  0  0  0  0  0  0  0  0  0
   30.5690   11.8630   18.6880 C   0  0  0  0  0  0  0  0  0  0  0  0
   27.6460   12.3820   16.7680 O   0  0  0  0  0  0  0  0  0  0  0  0
   28.9190    9.5590   19.0070 H   0  0  0  0  0  0  0  0  0  0  0  0
   27.2540   11.7080   19.1840 H   0  0  0  0  0  0  0  0  0  0  0  0
   29.0300   13.1980   18.8470 H   0  0  0  0  0  0  0  0  0  0  0  0
   29.9720   13.1310   20.9510 H   0  0  0  0  0  0  0  0  0  0  0  0
   28.4070   12.8700   21.0210 H   0  0  0  0  0  0  0  0  0  0  0  0
   29.4200   11.6530   21.1440 H   0  0  0  0  0  0  0  0  0  0  0  0
   31.2560   12.4950   18.9490 H   0  0  0  0  0  0  0  0  0  0  0  0
   30.7700   10.9860   19.0510 H   0  0  0  0  0  0  0  0  0  0  0  0
   30.5130   11.8160   17.7200 H   0  0  0  0  0  0  0  0  0  0  0  0
  2  1  1  0
  3  2  1  0
  4  3  2  0
  5  2  1  0
  6  5  1  0
  7  6  2  0
  8  6  1  0
  9  7  1  0
 10  8  2  0
 11 10  1  0
 11  9  2  0
  2 12  1  6
 13  5  1  0
 14  5  1  0
 15  7  1  0
 16  8  1  0
 17  9  1  0
 18 10  1  0
 19 11  1  0
 20  3  1  0
 21 20  1  0
 22 21  1  0
 23 22  2  0
 24 21  1  0
 25 24  1  0
 26 25  1  0
 26 20  1  0
 21 27  1  1
 28 24  1  0
 29 24  1  0
 30 25  1  0
 31 25  1  0
 32 26  1  0
 33 26  1  0
 34 22  1  0
 35 34  1  0
 36 35  1  0
 37 36  2  0
 38 35  1  0
 39 34  1  0
 35 40  1  6
 41 38  1  0
 42 38  1  0
 43 38  1  0
 44 36  1  0
 45 44  1  0
 46 45  1  0
 47 46  1  0
 48 46  1  0
 49 48  1  0
 50 49  1  0
 51 49  1  0
 52 49  1  0
 53 45  1  0
 54 53  1  0
 45 55  1  1
 46 56  1  6
 47 57  1  6
 58 47  1  0
 59 47  1  0
 60 53  1  0
 61 60  1  0
 62 61  1  0
 63 62  2  0
 64 61  1  0
 65 64  1  0
 66 64  1  0
 67 62  1  0
 68 60  1  0
 61 69  1  1
 70 64  1  0
 71 65  1  0
 72 65  1  0
 73 65  1  0
 74 66  1  0
 75 66  1  0
 76 66  1  0
M  END
$$$$
4DMA
     RDKit          3D

 21 23  0  0  0  0  0  0  0  0999 V2000
    2.4540   -0.6130   -4.0700 C   0  0  0  0  0  0  0  0  0  0  0  0
    3.0440    0.6480   -3.8850 C   0  0  0  0  0  0  0  0  0  0  0  0
    4.3620    0.9400   -4.3560 C   0  0  0  0  0  0  0  0  0  0  0  0
    5.1810   -0.0730   -5.0690 C   0  0  0  0  0  0  0  0  0  0  0  0
    4.5190   -1.3880   -5.2420 C   0  0  0  0  0  0  0  0  0  0  0  0
    3.1930   -1.6070   -4.7390 C   0  0  0  0  0  0  0  0  0  0  0  0
    6.6260    0.1810   -5.6020 C   0  0  0  0  0  0  0  0  0  0  0  0
    7.7100    0.5000   -4.7160 C   0  0  0  0  0  0  0  0  0  0  0  0
    9.0530    0.7060   -5.2040 C   0  0  0  0  0  0  0  0  0  0  0  0
    9.3340    0.5880   -6.6110 C   0  0  0  0  0  0  0  0  0  0  0  0
    8.2650    0.2760   -7.5120 C   0  0  0  0  0  0  0  0  0  0  0  0
    6.9380    0.0790   -7.0110 C   0  0  0  0  0  0  0  0  0  0  0  0
    5.0790   -2.5880   -5.8940 C   0  0  0  0  0  0  0  0  0  0  0  0
   10.6180    0.7680   -7.0690 O   0  0  0  0  0  0  0  0  0  0  0  0
    4.8380    2.6930   -3.9350 Br  0  0  0  0  0  0  0  0  0  0  0  0
    1.0760   -0.8990   -3.5590 C   0  0  0  0  0  0  0  0  0  0  0  0
    0.2100   -1.3030   -4.6050 O   0  0  0  0  0  0  0  0  0  0  0  0
    6.0900   -3.4400   -5.3280 C   0  0  0  0  0  0  0  0  0  0  0  0
    4.7680   -3.1220   -7.0810 C   0  0  0  0  0  0  0  0  0  0  0  0
    6.2710   -4.3810   -6.2260 C   0  0  0  0  0  0  0  0  0  0  0  0
    5.4830   -4.2340   -7.3260 O   0  0  0  0  0  0  0  0  0  0  0  0
  2  1  1  0
  3  2  1  0
  4  3  1  0
  5  4  1  0
  6  5  1  0
  6  1  1  0
  7  4  1  0
  8  7  1  0
  9  8  1  0
 10  9  1  0
 11 10  1  0
 12 11  1  0
 12  7  1  0
 13  5  1  0
 14 10  1  0
 15  3  1  0
 16  1  1  0
 17 16  1  0
 18 13  1  0
 19 13  1  0
 20 18  1  0
 21 19  1  0
 21 20  1  0
M  END
$$$$
4JC3
     RDKit          3D

 42 43  0  0  0  0  0  0  0  0999 V2000
   12.6790    7.9500   14.8510 N   0  0  0  0  0  0  0  0  0  0  0  0
   13.6550    9.0970   14.7530 C   0  0  2  0  0  0  0  0  0  0  0  0
   12.9900   10.3480   14.1000 C   0  0  0  0  0  0  0  0  0  0  0  0
   12.1390   10.2070   13.2160 O   0  0  0  0  0  0  0  0  0  0  0  0
   14.9380    8.6300   14.0160 C   0  0  0  0  0  0  0  0  0  0  0  0
   14.7310    8.2540   12.5580 C   0  0  0  0  0  0  0  0  0  0  0  0
   14.8180    9.2310   11.5340 C   0  0  0  0  0  0  0  0  0  0  0  0
   14.4650    6.9130   12.1810 C   0  0  0  0  0  0  0  0  0  0  0  0
   14.6220    8.8800   10.1900 C   0  0  0  0  0  0  0  0  0  0  0  0
   14.2710    6.5650   10.8340 C   0  0  0  0  0  0  0  0  0  0  0  0
   14.3550    7.5460    9.8440 C   0  0  0  0  0  0  0  0  0  0  0  0
   13.3630   11.5730   14.5260 N   0  0  0  0  0  0  0  0  0  0  0  0
   12.7080   12.7700   13.9160 C   0  0  2  0  0  0  0  0  0  0  0  0
   13.3250   13.1440   12.5290 C   0  0  0  0  0  0  0  0  0  0  0  0
   14.3960   12.6820   12.2080 O   0  0  0  0  0  0  0  0  0  0  0  0
   12.9860   13.8750   14.9550 C   0  0  0  0  0  0  0  0  0  0  0  0
   14.3020   13.4500   15.5830 C   0  0  0  0  0  0  0  0  0  0  0  0
   14.3380   11.9420   15.5880 C   0  0  0  0  0  0  0  0  0  0  0  0
   12.6290   13.9380   11.7230 N   0  0  0  0  0  0  0  0  0  0  0  0
   13.0880   14.2570   10.3620 C   0  0  2  0  0  0  0  0  0  0  0  0
   14.2000   15.3280   10.3850 C   0  0  0  0  0  0  0  0  0  0  0  0
   14.1040   16.3090   11.1700 O   0  0  0  0  0  0  0  0  0  0  0  0
   11.9150   14.7720    9.5410 C   0  0  0  0  0  0  0  0  0  0  0  0
   15.2180   15.1260    9.5330 N   0  0  0  0  0  0  0  0  0  0  0  0
   16.2810   16.0890    9.2670 C   0  0  1  0  0  0  0  0  0  0  0  0
   17.5990   15.6730    9.9340 C   0  0  1  0  0  0  0  0  0  0  0  0
   17.4790   16.0010   11.4190 C   0  0  0  0  0  0  0  0  0  0  0  0
   17.8590   14.2770    9.7030 O   0  0  0  0  0  0  0  0  0  0  0  0
   19.3160   13.6950    9.9640 P   0  0  0  0  0  0  0  0  0  0  0  0
   19.2430   13.2580   11.4040 O   0  0  0  0  0  0  0  0  0  0  0  0
   19.4310   12.4620    9.0870 O   0  0  0  0  0  0  0  0  0  0  0  0
   20.3270   14.8300    9.7400 O   0  0  0  0  0  0  0  0  0  0  0  0
   16.4730   16.0810    7.7850 C   0  0  1  0  0  0  0  0  0  0  0  0
   16.0020   15.1530    7.1340 O   0  0  0  0  0  0  0  0  0  0  0  0
   17.0860   17.1110    7.2320 N   0  0  0  0  0  0  0  0  0  0  0  0
   17.3280   17.1560    5.7830 C   0  0  2  0  0  0  0  0  0  0  0  0
   18.7860   17.4180    5.5640 C   0  0  0  0  0  0  0  0  0  0  0  0
   19.5060   17.9530    6.4260 O   0  0  0  0  0  0  0  0  0  0  0  0
   16.5090   18.2360    5.0230 C   0  0  0  0  0  0  0  0  0  0  0  0
   15.0410   17.8990    5.1200 C   0  0  0  0  0  0  0  0  0  0  0  0
   16.7750   19.6340    5.5980 C   0  0  0  0  0  0  0  0  0  0  0  0
   19.2210   17.1200    4.4830 O   0  0  0  0  0  0  0  0  0  0  0  0
  2  1  1  6
  3  2  1  0
  4  3  2  0
  5  2  1  0
  6  5  1  0
  7  6  2  0
  8  6  1  0
  9  7  1  0
 10  8  2  0
 11 10  1  0
 11  9  2  0
 12  3  1  0
 13 12  1  0
 13 14  1  6
 15 14  2  0
 16 13  1  0
 17 16  1  0
 18 17  1  0
 18 12  1  0
 19 14  1  0
 20 19  1  0
 21 20  1  0
 22 21  2  0
 20 23  1  6
 24 21  1  0
 25 24  1  6
 26 25  1  0
 26 27  1  1
 28 26  1  0
 29 28  1  0
 30 29  1  0
 31 29  1  0
 32 29  1  0
 33 25  1  0
 33 34  1  6
 35 33  1  0
 36 35  1  1
 37 36  1  0
 38 37  2  0
 39 36  1  0
 40 39  1  0
 41 39  1  0
 42 37  1  0
M  END
$$$$
7NFW
     RDKit          3D

 42 43  0  0  0  0  0  0  0  0999 V2000
  -12.5390   -8.0100   15.1320 N   0  0  0  0  0  0  0  0  0  0  0  0
  -13.5380   -9.0660   14.9440 C   0  0  2  0  0  0  0  0  0  0  0  0
  -12.9150  -10.2790   14.2760 C   0  0  0  0  0  0  0  0  0  0  0  0
  -12.0430  -10.1450   13.4140 O   0  0  0  0  0  0  0  0  0  0  0  0
  -14.7250   -8.5390   14.1180 C   0  0  0  0  0  0  0  0  0  0  0  0
  -15.5710   -7.5430   14.8770 C   0  0  0  0  0  0  0  0  0  0  0  0
  -16.5740   -7.9680   15.7310 C   0  0  0  0  0  0  0  0  0  0  0  0
  -15.3430   -6.1850   14.7600 C   0  0  0  0  0  0  0  0  0  0  0  0
  -17.3440   -7.0510   16.4360 C   0  0  0  0  0  0  0  0  0  0  0  0
  -16.1230   -5.2710   15.4580 C   0  0  0  0  0  0  0  0  0  0  0  0
  -17.1080   -5.7110   16.3010 C   0  0  0  0  0  0  0  0  0  0  0  0
  -13.3260  -11.4830   14.6860 N   0  0  0  0  0  0  0  0  0  0  0  0
  -12.7580  -12.6870   14.0640 C   0  0  2  0  0  0  0  0  0  0  0  0
  -13.3690  -12.9400   12.6920 C   0  0  0  0  0  0  0  0  0  0  0  0
  -14.4280  -12.4280   12.3320 O   0  0  0  0  0  0  0  0  0  0  0  0
  -13.1090  -13.7750   15.0660 C   0  0  0  0  0  0  0  0  0  0  0  0
  -14.4520  -13.3360   15.6120 C   0  0  0  0  0  0  0  0  0  0  0  0
  -14.3390  -11.8210   15.7080 C   0  0  0  0  0  0  0  0  0  0  0  0
  -12.6700  -13.7220   11.9110 N   0  0  0  0  0  0  0  0  0  0  0  0
  -13.0670  -14.0660   10.5740 C   0  0  2  0  0  0  0  0  0  0  0  0
  -14.1640  -15.1090   10.5330 C   0  0  0  0  0  0  0  0  0  0  0  0
  -14.1300  -16.0940   11.2700 O   0  0  0  0  0  0  0  0  0  0  0  0
  -11.8580  -14.5670    9.8080 C   0  0  0  0  0  0  0  0  0  0  0  0
  -15.1450  -14.8850    9.6590 N   0  0  0  0  0  0  0  0  0  0  0  0
  -16.2350  -15.8110    9.3840 C   0  0  1  0  0  0  0  0  0  0  0  0
  -17.5620  -15.5640   10.1250 C   0  0  1  0  0  0  0  0  0  0  0  0
  -17.3610  -15.7100   11.6100 C   0  0  0  0  0  0  0  0  0  0  0  0
  -17.9030  -14.1720    9.7730 O   0  0  0  0  0  0  0  0  0  0  0  0
  -19.3230  -13.5760   10.1020 P   0  0  0  0  0  0  0  0  0  0  0  0
  -19.3920  -12.3340    9.1720 O   0  0  0  0  0  0  0  0  0  0  0  0
  -19.3880  -13.1930   11.5600 O   0  0  0  0  0  0  0  0  0  0  0  0
  -20.3410  -14.5670    9.7430 O   0  0  0  0  0  0  0  0  0  0  0  0
  -16.4420  -15.8500    7.8720 C   0  0  0  0  0  0  0  0  0  0  0  0
  -16.0230  -14.9100    7.1850 O   0  0  0  0  0  0  0  0  0  0  0  0
  -17.0460  -16.9170    7.3480 N   0  0  0  0  0  0  0  0  0  0  0  0
  -17.2980  -16.9910    5.8970 C   0  0  2  0  0  0  0  0  0  0  0  0
  -18.7370  -17.2580    5.5670 C   0  0  0  0  0  0  0  0  0  0  0  0
  -19.1160  -17.0590    4.3820 O   0  0  0  0  0  0  0  0  0  0  0  0
  -16.4360  -18.0340    5.1830 C   0  0  0  0  0  0  0  0  0  0  0  0
  -14.9730  -17.6880    5.2950 C   0  0  0  0  0  0  0  0  0  0  0  0
  -16.7040  -19.4210    5.7320 C   0  0  0  0  0  0  0  0  0  0  0  0
  -19.4940  -17.7100    6.4430 O   0  0  0  0  0  0  0  0  0  0  0  0
  2  1  1  6
  3  2  1  0
  4  3  2  0
  5  2  1  0
  6  5  1  0
  7  6  2  0
  8  6  1  0
  9  7  1  0
 10  8  2  0
 11  9  2  0
 11 10  1  0
 12  3  1  0
 13 12  1  0
 13 14  1  6
 15 14  2  0
 16 13  1  0
 17 16  1  0
 18 17  1  0
 18 12  1  0
 19 14  1  0
 20 19  1  0
 21 20  1  0
 22 21  2  0
 20 23  1  6
 24 21  1  0
 25 24  1  6
 26 25  1  0
 26 27  1  1
 28 26  1  0
 29 28  1  0
 30 29  1  0
 31 29  1  0
 32 29  1  0
 33 25  1  0
 34 33  1  0
 35 33  1  0
 36 35  1  1
 37 36  1  0
 38 37  2  0
 39 36  1  0
 40 39  1  0
 41 39  1  0
 42 37  1  0
M  END
$$$$
4PPS
     RDKit          3D

 76 76  0  0  0  0  0  0  0  0999 V2000
   29.0750   18.5470    6.0730 N   0  0  0  0  0  0  0  0  0  0  0  0
   28.6390   17.1540    6.1250 C   0  0  2  0  0  0  0  0  0  0  0  0
   28.2240   16.6340    4.7520 C   0  0  0  0  0  0  0  0  0  0  0  0
   27.4950   17.2990    4.0160 O   0  0  0  0  0  0  0  0  0  0  0  0
   27.5010   16.9810    7.1350 C   0  0  0  0  0  0  0  0  0  0  0  0
   27.9600   17.0180    8.5850 C   0  0  0  0  0  0  0  0  0  0  0  0
   26.7930   17.1970    9.5460 C   0  0  0  0  0  0  0  0  0  0  0  0
   25.7820   16.0690    9.4260 C   0  0  0  0  0  0  0  0  0  0  0  0
   24.7000   16.1960   10.4430 N   0  0  0  0  0  0  0  0  0  0  0  0
   28.6980   15.4370    4.4210 N   0  0  0  0  0  0  0  0  0  0  0  0
   28.4560   14.8370    3.1130 C   0  0  2  0  0  0  0  0  0  0  0  0
   26.9740   14.6900    2.7920 C   0  0  0  0  0  0  0  0  0  0  0  0
   26.5430   14.9790    1.6750 O   0  0  0  0  0  0  0  0  0  0  0  0
   29.1200   13.4550    3.0050 C   0  0  2  0  0  0  0  0  0  0  0  0
   30.6380   13.5860    3.1450 C   0  0  0  0  0  0  0  0  0  0  0  0
   28.7530   12.7940    1.6830 C   0  0  0  0  0  0  0  0  0  0  0  0
   31.3610   12.2630    3.2080 C   0  0  0  0  0  0  0  0  0  0  0  0
   26.2000   14.2280    3.7690 N   0  0  0  0  0  0  0  0  0  0  0  0
   24.7660   14.0410    3.5790 C   0  0  2  0  0  0  0  0  0  0  0  0
   24.0950   15.3540    3.2120 C   0  0  0  0  0  0  0  0  0  0  0  0
   23.2320   15.4010    2.3350 O   0  0  0  0  0  0  0  0  0  0  0  0
   24.1260   13.4670    4.8420 C   0  0  0  0  0  0  0  0  0  0  0  0
   22.6060   13.3240    4.8020 C   0  0  0  0  0  0  0  0  0  0  0  0
   22.1810   12.4870    3.6030 C   0  0  0  0  0  0  0  0  0  0  0  0
   22.1000   12.7130    6.1020 C   0  0  0  0  0  0  0  0  0  0  0  0
   24.4960   16.4220    3.8940 N   0  0  0  0  0  0  0  0  0  0  0  0
   23.9440   17.7460    3.6380 C   0  0  2  0  0  0  0  0  0  0  0  0
   24.1950   18.1780    2.1960 C   0  0  0  0  0  0  0  0  0  0  0  0
   23.3120   18.7340    1.5540 O   0  0  0  0  0  0  0  0  0  0  0  0
   24.5310   18.7750    4.6090 C   0  0  0  0  0  0  0  0  0  0  0  0
   23.9530   20.1490    4.4620 C   0  0  0  0  0  0  0  0  0  0  0  0
   24.5030   21.1050    3.6350 N   0  0  0  0  0  0  0  0  0  0  0  0
   22.8770   20.7320    5.0440 C   0  0  0  0  0  0  0  0  0  0  0  0
   23.7900   22.2150    3.7100 C   0  0  0  0  0  0  0  0  0  0  0  0
   22.7970   22.0140    4.5580 N   0  0  0  0  0  0  0  0  0  0  0  0
   25.4020   17.9250    1.6950 N   0  0  0  0  0  0  0  0  0  0  0  0
   25.7480   18.2590    0.3130 C   0  0  2  0  0  0  0  0  0  0  0  0
   24.9510   17.4250   -0.6920 C   0  0  0  0  0  0  0  0  0  0  0  0
   24.4690   17.9430   -1.7010 O   0  0  0  0  0  0  0  0  0  0  0  0
   27.2510   18.0680    0.0790 C   0  0  0  0  0  0  0  0  0  0  0  0
   27.7020   18.2290   -1.3720 C   0  0  0  0  0  0  0  0  0  0  0  0
   27.7320   19.6900   -1.8040 C   0  0  0  0  0  0  0  0  0  0  0  0
   28.1640   19.8500   -3.1920 N   0  0  0  0  0  0  0  0  0  0  0  0
   29.4030   20.1620   -3.5670 C   0  0  0  0  0  0  0  0  0  0  0  0
   30.3510   20.3520   -2.6580 N   0  0  0  0  0  0  0  0  0  0  0  0
   29.6960   20.2880   -4.8550 N   0  0  0  0  0  0  0  0  0  0  0  0
   24.8160   16.1320   -0.4100 N   0  0  0  0  0  0  0  0  0  0  0  0
   24.1560   15.2080   -1.3300 C   0  0  2  0  0  0  0  0  0  0  0  0
   22.6630   15.4910   -1.4960 C   0  0  0  0  0  0  0  0  0  0  0  0
   22.0910   15.2220   -2.5490 O   0  0  0  0  0  0  0  0  0  0  0  0
   24.3630   13.7610   -0.8760 C   0  0  0  0  0  0  0  0  0  0  0  0
   25.7950   13.2280   -0.9500 C   0  0  0  0  0  0  0  0  0  0  0  0
   25.8660   11.8090   -0.4070 C   0  0  0  0  0  0  0  0  0  0  0  0
   26.3090   13.2860   -2.3800 C   0  0  0  0  0  0  0  0  0  0  0  0
   22.0340   16.0250   -0.4540 N   0  0  0  0  0  0  0  0  0  0  0  0
   20.6030   16.3240   -0.4940 C   0  0  2  0  0  0  0  0  0  0  0  0
   20.2830   17.5190   -1.3970 C   0  0  0  0  0  0  0  0  0  0  0  0
   19.1180   17.8760   -1.5810 O   0  0  0  0  0  0  0  0  0  0  0  0
   20.0710   16.5570    0.9210 C   0  0  0  0  0  0  0  0  0  0  0  0
   19.8200   15.2770    1.7210 C   0  0  0  0  0  0  0  0  0  0  0  0
   19.7820   15.5660    3.2130 C   0  0  0  0  0  0  0  0  0  0  0  0
   18.5280   14.6170    1.2610 C   0  0  0  0  0  0  0  0  0  0  0  0
   21.3230   18.1290   -1.9610 N   0  0  0  0  0  0  0  0  0  0  0  0
   21.1610   19.2810   -2.8460 C   0  0  2  0  0  0  0  0  0  0  0  0
   21.4790   18.9310   -4.2980 C   0  0  0  0  0  0  0  0  0  0  0  0
   20.7500   19.3230   -5.2090 O   0  0  0  0  0  0  0  0  0  0  0  0
   22.0430   20.4490   -2.3900 C   0  0  0  0  0  0  0  0  0  0  0  0
   21.6150   21.1000   -1.0790 C   0  0  0  0  0  0  0  0  0  0  0  0
   22.7020   21.9800   -0.4920 C   0  0  0  0  0  0  0  0  0  0  0  0
   22.8370   23.1410   -0.8630 O   0  0  0  0  0  0  0  0  0  0  0  0
   23.4980   21.4210    0.4140 N   0  0  0  0  0  0  0  0  0  0  0  0
   22.5620   18.1890   -4.5070 N   0  0  0  0  0  0  0  0  0  0  0  0
   22.9890   17.8240   -5.8550 C   0  0  2  0  0  0  0  0  0  0  0  0
   21.9820   16.8980   -6.5360 C   0  0  0  0  0  0  0  0  0  0  0  0
   21.2280   17.3190   -7.4170 O   0  0  0  0  0  0  0  0  0  0  0  0
   24.3710   17.1690   -5.8180 C   0  0  0  0  0  0  0  0  0  0  0  0
  2  1  1  6
  3  2  1  0
  4  3  2  0
  5  2  1  0
  6  5  1  0
  7  6  1  0
  8  7  1  0
  9  8  1  0
 10  3  1  0
 11 10  1  1
 12 11  1  0
 13 12  2  0
 14 11  1  0
 15 14  1  0
 14 16  1  6
 17 15  1  0
 18 12  1  0
 19 18  1  0
 20 19  1  0
 21 20  2  0
 19 22  1  1
 23 22  1  0
 24 23  1  0
 25 23  1  0
 26 20  1  0
 27 26  1  0
 28 27  1  0
 29 28  2  0
 27 30  1  1
 31 30  1  0
 32 31  1  0
 33 31  2  0
 34 32  2  0
 35 33  1  0
 35 34  1  0
 36 28  1  0
 37 36  1  0
 38 37  1  0
 39 38  2  0
 37 40  1  1
 41 40  1  0
 42 41  1  0
 43 42  1  0
 44 43  1  0
 45 44  1  0
 46 44  2  0
 47 38  1  0
 48 47  1  0
 49 48  1  0
 50 49  2  0
 48 51  1  1
 52 51  1  0
 53 52  1  0
 54 52  1  0
 55 49  1  0
 56 55  1  0
 57 56  1  0
 58 57  2  0
 56 59  1  1
 60 59  1  0
 61 60  1  0
 62 60  1  0
 63 57  1  0
 64 63  1  0
 65 64  1  0
 66 65  2  0
 64 67  1  1
 68 67  1  0
 69 68  1  0
 70 69  2  0
 71 69  1  0
 72 65  1  0
 73 72  1  0
 74 73  1  0
 75 74  2  0
 73 76  1  1
M  END
$$$$
7NEL
     RDKit          3D

 44 47  0  0  0  0  0  0  0  0999 V2000
   23.8860  -11.3500    4.0690 C   0  0  0  0  0  0  0  0  0  0  0  0
   23.0690  -11.0940    2.9600 C   0  0  0  0  0  0  0  0  0  0  0  0
   21.7060  -11.2480    3.0940 C   0  0  0  0  0  0  0  0  0  0  0  0
   20.8910  -11.0200    2.0060 O   0  0  0  0  0  0  0  0  0  0  0  0
   21.1500  -11.6710    4.3080 C   0  0  0  0  0  0  0  0  0  0  0  0
   21.9770  -11.9070    5.4120 C   0  0  0  0  0  0  0  0  0  0  0  0
   21.3310  -12.3480    6.6960 C   0  0  1  0  0  0  0  0  0  0  0  0
   22.3190  -12.9810    7.6610 C   0  0  2  0  0  0  0  0  0  0  0  0
   23.5180  -12.0680    7.8330 C   0  0  2  0  0  0  0  0  0  0  0  0
   24.2830  -12.0290    6.5000 C   0  0  1  0  0  0  0  0  0  0  0  0
   23.3500  -11.7520    5.3080 C   0  0  0  0  0  0  0  0  0  0  0  0
   25.4620  -11.0380    6.6360 C   0  0  2  0  0  0  0  0  0  0  0  0
   26.4390  -11.4310    7.8030 C   0  0  2  0  0  0  0  0  0  0  0  0
   25.6910  -11.6000    9.1060 C   0  0  1  0  0  0  0  0  0  0  0  0
   24.5150  -12.5810    8.8910 C   0  0  1  0  0  0  0  0  0  0  0  0
   24.0040  -12.8120   10.3350 C   0  0  2  0  0  0  0  0  0  0  0  0
   25.2980  -12.7690   11.2050 C   0  0  2  0  0  0  0  0  0  0  0  0
   26.4530  -12.3730   10.2450 C   0  0  2  0  0  0  0  0  0  0  0  0
   27.3830  -11.5740   10.8690 O   0  0  0  0  0  0  0  0  0  0  0  0
   25.2480  -10.2270    9.5940 C   0  0  2  0  0  0  0  0  0  0  0  0
   24.8060  -11.2520    3.9810 H   0  0  0  0  0  0  0  0  0  0  0  0
   23.4400  -10.8250    2.1500 H   0  0  0  0  0  0  0  0  0  0  0  0
   20.8110  -10.1740    1.9660 H   0  0  0  0  0  0  0  0  0  0  0  0
   20.2310  -11.7950    4.3830 H   0  0  0  0  0  0  0  0  0  0  0  0
   20.8920  -11.5990    7.1300 H   0  0  0  0  0  0  0  0  0  0  0  0
   20.6110  -12.9730    6.5170 H   0  0  0  0  0  0  0  0  0  0  0  0
   22.5990  -13.8540    7.3440 H   0  0  0  0  0  0  0  0  0  0  0  0
   21.8990  -13.1560    8.5180 H   0  0  0  0  0  0  0  0  0  0  0  0
   23.1970  -11.1860    8.0760 H   0  0  0  0  0  0  0  0  0  0  0  0
   24.6370  -12.9060    6.2840 H   0  0  0  0  0  0  0  0  0  0  0  0
   25.1260  -10.1380    6.7700 H   0  0  0  0  0  0  0  0  0  0  0  0
   25.9470  -10.9820    5.7980 H   0  0  0  0  0  0  0  0  0  0  0  0
   27.1370  -10.7640    7.8990 H   0  0  0  0  0  0  0  0  0  0  0  0
   26.9190  -12.2450    7.5820 H   0  0  0  0  0  0  0  0  0  0  0  0
   24.8590  -13.4120    8.5290 H   0  0  0  0  0  0  0  0  0  0  0  0
   23.5280  -13.6520   10.4280 H   0  0  0  0  0  0  0  0  0  0  0  0
   23.3560  -12.1440   10.6090 H   0  0  0  0  0  0  0  0  0  0  0  0
   25.4640  -13.6230   11.6340 H   0  0  0  0  0  0  0  0  0  0  0  0
   25.2090  -12.1400   11.9380 H   0  0  0  0  0  0  0  0  0  0  0  0
   26.8950  -13.1440    9.8570 H   0  0  0  0  0  0  0  0  0  0  0  0
   27.7200  -11.0690   10.2740 H   0  0  0  0  0  0  0  0  0  0  0  0
   24.6160   -9.8060    8.9920 H   0  0  0  0  0  0  0  0  0  0  0  0
   25.9910   -9.6100    9.6860 H   0  0  0  0  0  0  0  0  0  0  0  0
   24.8160  -10.2640   10.4620 H   0  0  0  0  0  0  0  0  0  0  0  0
  2  1  1  0
  3  2  1  0
  4  3  1  0
  5  3  1  0
  6  5  1  0
  7  6  1  0
  8  7  1  0
  9  8  1  0
 10  9  1  0
 11  6  1  0
 11  1  1  0
 11 10  1  0
 12 10  1  0
 13 12  1  0
 14 13  1  0
 15 14  1  0
 15  9  1  0
 16 15  1  0
 17 16  1  0
 14 18  1  1
 18 17  1  0
 19 18  1  0
 20 14  1  0
 21  1  1  0
 22  2  1  0
 23  4  1  0
 24  5  1  0
  7 25  1  1
 26  7  1  0
  8 27  1  6
 28  8  1  0
  9 29  1  1
 10 30  1  6
 12 31  1  1
 32 12  1  0
 13 33  1  1
 34 13  1  0
 15 35  1  6
 16 36  1  6
 37 16  1  0
 17 38  1  1
 39 17  1  0
 18 40  1  6
 41 19  1  0
 20 42  1  6
 43 20  1  0
 44 20  1  0
M  END
$$$$
8ARG
     RDKit          3D

 42 43  0  0  0  0  0  0  0  0999 V2000
  -12.4970   -8.1120   14.8810 N   0  0  0  0  0  0  0  0  0  0  0  0
  -13.5460   -9.1530   14.6400 C   0  0  2  0  0  0  0  0  0  0  0  0
  -13.0020  -10.3820   13.9310 C   0  0  0  0  0  0  0  0  0  0  0  0
  -12.2310  -10.2890   12.9800 O   0  0  0  0  0  0  0  0  0  0  0  0
  -14.6940   -8.5610   13.8340 C   0  0  0  0  0  0  0  0  0  0  0  0
  -15.3340   -7.4130   14.5310 C   0  0  0  0  0  0  0  0  0  0  0  0
  -16.2840   -7.6360   15.5070 C   0  0  0  0  0  0  0  0  0  0  0  0
  -14.9440   -6.1000   14.2500 C   0  0  0  0  0  0  0  0  0  0  0  0
  -16.8800   -6.5650   16.1640 C   0  0  0  0  0  0  0  0  0  0  0  0
  -15.5370   -5.0270   14.8900 C   0  0  0  0  0  0  0  0  0  0  0  0
  -16.5070   -5.2550   15.8540 C   0  0  0  0  0  0  0  0  0  0  0  0
  -13.3970  -11.5860   14.3740 N   0  0  0  0  0  0  0  0  0  0  0  0
  -12.8510  -12.7970   13.7730 C   0  0  2  0  0  0  0  0  0  0  0  0
  -13.4360  -13.1030   12.3810 C   0  0  0  0  0  0  0  0  0  0  0  0
  -14.5000  -12.6370   12.0130 O   0  0  0  0  0  0  0  0  0  0  0  0
  -13.1890  -13.8550   14.8080 C   0  0  0  0  0  0  0  0  0  0  0  0
  -14.4840  -13.3680   15.3970 C   0  0  0  0  0  0  0  0  0  0  0  0
  -14.3740  -11.8590   15.4480 C   0  0  0  0  0  0  0  0  0  0  0  0
  -12.7180  -13.9310   11.6430 N   0  0  0  0  0  0  0  0  0  0  0  0
  -13.1000  -14.3130   10.3160 C   0  0  2  0  0  0  0  0  0  0  0  0
  -14.2170  -15.3570   10.3320 C   0  0  0  0  0  0  0  0  0  0  0  0
  -14.1650  -16.3520   11.0730 O   0  0  0  0  0  0  0  0  0  0  0  0
  -11.9180  -14.9200    9.6180 C   0  0  0  0  0  0  0  0  0  0  0  0
  -15.2250  -15.1060    9.5000 N   0  0  0  0  0  0  0  0  0  0  0  0
  -16.3050  -16.0510    9.1400 C   0  0  1  0  0  0  0  0  0  0  0  0
  -17.6060  -15.7610    9.9110 C   0  0  1  0  0  0  0  0  0  0  0  0
  -17.4500  -15.9040   11.4090 C   0  0  0  0  0  0  0  0  0  0  0  0
  -17.9180  -14.3810    9.5710 O   0  0  0  0  0  0  0  0  0  0  0  0
  -19.3370  -13.7190    9.9400 P   0  0  0  0  0  0  0  0  0  0  0  0
  -19.3900  -12.4920    9.0500 O   0  0  0  0  0  0  0  0  0  0  0  0
  -19.3440  -13.3640   11.3940 O   0  0  0  0  0  0  0  0  0  0  0  0
  -20.4050  -14.7430    9.6210 O   0  0  0  0  0  0  0  0  0  0  0  0
  -16.5200  -16.0340    7.6350 C   0  0  1  0  0  0  0  0  0  0  0  0
  -16.1120  -15.0770    6.9750 O   0  0  0  0  0  0  0  0  0  0  0  0
  -17.0810  -17.1120    7.1260 N   0  0  0  0  0  0  0  0  0  0  0  0
  -17.3840  -17.1850    5.7150 C   0  0  2  0  0  0  0  0  0  0  0  0
  -18.8290  -17.4810    5.4140 C   0  0  0  0  0  0  0  0  0  0  0  0
  -19.5970  -17.9130    6.2910 O   0  0  0  0  0  0  0  0  0  0  0  0
  -16.5360  -18.2450    5.0050 C   0  0  0  0  0  0  0  0  0  0  0  0
  -15.0900  -17.8460    5.0740 C   0  0  0  0  0  0  0  0  0  0  0  0
  -16.7640  -19.6360    5.5790 C   0  0  0  0  0  0  0  0  0  0  0  0
  -19.2260  -17.3540    4.2370 O   0  0  0  0  0  0  0  0  0  0  0  0
  2  1  1  6
  3  2  1  0
  4  3  2  0
  5  2  1  0
  6  5  1  0
  7  6  2  0
  8  6  1  0
  9  7  1  0
 10  8  2  0
 11  9  2  0
 11 10  1  0
 12  3  1  0
 13 12  1  0
 13 14  1  6
 15 14  2  0
 16 13  1  0
 17 16  1  0
 18 17  1  0
 18 12  1  0
 19 14  1  0
 20 19  1  0
 21 20  1  0
 22 21  2  0
 20 23  1  1
 24 21  1  0
 25 24  1  6
 26 25  1  0
 26 27  1  1
 28 26  1  0
 29 28  1  0
 30 29  1  0
 31 29  1  0
 32 29  1  0
 33 25  1  0
 33 34  1  6
 35 33  1  0
 36 35  1  1
 37 36  1  0
 38 37  2  0
 39 36  1  0
 40 39  1  0
 41 39  1  0
 42 37  1  0
M  END
$$$$
9I6S
     RDKit          3D

 42 43  0  0  0  0  0  0  0  0999 V2000
  -12.7840   -8.2110   14.8110 N   0  0  0  0  0  0  0  0  0  0  0  0
  -13.7440   -9.3140   14.7540 C   0  0  2  0  0  0  0  0  0  0  0  0
  -13.0930  -10.5320   14.1170 C   0  0  0  0  0  0  0  0  0  0  0  0
  -12.2450  -10.4130   13.2360 O   0  0  0  0  0  0  0  0  0  0  0  0
  -15.0060   -8.8820   13.9780 C   0  0  0  0  0  0  0  0  0  0  0  0
  -15.8080   -7.8860   14.7720 C   0  0  0  0  0  0  0  0  0  0  0  0
  -16.5960   -8.2970   15.8360 C   0  0  0  0  0  0  0  0  0  0  0  0
  -15.7160   -6.5250   14.5050 C   0  0  0  0  0  0  0  0  0  0  0  0
  -17.3190   -7.3680   16.5830 C   0  0  0  0  0  0  0  0  0  0  0  0
  -16.4410   -5.5980   15.2530 C   0  0  0  0  0  0  0  0  0  0  0  0
  -17.2320   -6.0240   16.2900 C   0  0  0  0  0  0  0  0  0  0  0  0
  -13.4540  -11.7540   14.5610 N   0  0  0  0  0  0  0  0  0  0  0  0
  -12.9020  -12.9690   13.9640 C   0  0  2  0  0  0  0  0  0  0  0  0
  -13.4580  -13.2380   12.5640 C   0  0  0  0  0  0  0  0  0  0  0  0
  -14.5340  -12.7630   12.2000 O   0  0  0  0  0  0  0  0  0  0  0  0
  -13.2870  -14.0010   14.9890 C   0  0  0  0  0  0  0  0  0  0  0  0
  -14.5500  -13.5740   15.5100 C   0  0  0  0  0  0  0  0  0  0  0  0
  -14.4430  -12.0550   15.6130 C   0  0  0  0  0  0  0  0  0  0  0  0
  -12.7410  -14.0670   11.7990 N   0  0  0  0  0  0  0  0  0  0  0  0
  -13.1490  -14.4300   10.4560 C   0  0  2  0  0  0  0  0  0  0  0  0
  -14.2930  -15.4460   10.4340 C   0  0  0  0  0  0  0  0  0  0  0  0
  -14.2280  -16.4650   11.1450 O   0  0  0  0  0  0  0  0  0  0  0  0
  -11.9680  -15.0080    9.7110 C   0  0  0  0  0  0  0  0  0  0  0  0
  -15.2800  -15.2160    9.5720 N   0  0  0  0  0  0  0  0  0  0  0  0
  -16.3550  -16.1410    9.2420 C   0  0  1  0  0  0  0  0  0  0  0  0
  -17.6670  -15.8540    9.9700 C   0  0  1  0  0  0  0  0  0  0  0  0
  -17.5490  -15.9870   11.4700 C   0  0  0  0  0  0  0  0  0  0  0  0
  -17.9750  -14.4230    9.6330 O   0  0  0  0  0  0  0  0  0  0  0  0
  -19.4320  -13.7850    9.9770 P   0  0  0  0  0  0  0  0  0  0  0  0
  -19.4420  -13.4440   11.4390 O   0  0  0  0  0  0  0  0  0  0  0  0
  -19.4870  -12.5570    9.0570 O   0  0  0  0  0  0  0  0  0  0  0  0
  -20.4920  -14.8400    9.6670 O   0  0  0  0  0  0  0  0  0  0  0  0
  -16.5140  -16.1380    7.7370 C   0  0  0  0  0  0  0  0  0  0  0  0
  -16.0790  -15.2010    7.0620 O   0  0  0  0  0  0  0  0  0  0  0  0
  -17.1380  -17.1760    7.2010 N   0  0  0  0  0  0  0  0  0  0  0  0
  -17.4020  -17.2870    5.7800 C   0  0  2  0  0  0  0  0  0  0  0  0
  -18.8510  -17.5650    5.4430 C   0  0  0  0  0  0  0  0  0  0  0  0
  -19.6370  -17.9760    6.2980 O   0  0  0  0  0  0  0  0  0  0  0  0
  -16.5500  -18.3390    5.0550 C   0  0  0  0  0  0  0  0  0  0  0  0
  -15.0940  -17.9550    5.1080 C   0  0  0  0  0  0  0  0  0  0  0  0
  -16.7900  -19.7480    5.5990 C   0  0  0  0  0  0  0  0  0  0  0  0
  -19.2320  -17.3130    4.2660 O   0  0  0  0  0  0  0  0  0  0  0  0
  2  1  1  6
  3  2  1  0
  4  3  2  0
  5  2  1  0
  6  5  1  0
  7  6  2  0
  8  6  1  0
  9  7  1  0
 10  8  2  0
 11 10  1  0
 11  9  2  0
 12  3  1  0
 13 12  1  0
 13 14  1  6
 15 14  2  0
 16 13  1  0
 17 16  1  0
 18 17  1  0
 18 12  1  0
 19 14  1  0
 20 19  1  0
 21 20  1  0
 22 21  2  0
 20 23  1  1
 24 21  1  0
 25 24  1  6
 26 25  1  0
 26 27  1  1
 28 26  1  0
 29 28  1  0
 30 29  1  0
 31 29  1  0
 32 29  1  0
 33 25  1  0
 34 33  1  0
 35 33  1  0
 36 35  1  1
 37 36  1  0
 38 37  2  0
 39 36  1  0
 40 39  1  0
 41 39  1  0
 42 37  1  0
M  END
$$$$
2OUZ
     RDKit          3D

 31 35  0  0  0  0  0  0  0  0999 V2000
   30.6130   -1.2140   27.6360 C   0  0  1  0  0  0  0  0  0  0  0  0
   31.1040    0.1650   28.2340 C   0  0  2  0  0  0  0  0  0  0  0  0
   30.3180    1.3640   27.6310 C   0  0  0  0  0  0  0  0  0  0  0  0
   28.8310    1.2770   27.9850 C   0  0  0  0  0  0  0  0  0  0  0  0
   28.2720   -0.1070   27.6530 C   0  0  0  0  0  0  0  0  0  0  0  0
   26.9130   -0.2040   27.4050 C   0  0  0  0  0  0  0  0  0  0  0  0
   26.3400   -1.4480   27.1030 C   0  0  0  0  0  0  0  0  0  0  0  0
   27.1210   -2.5800   27.0350 C   0  0  0  0  0  0  0  0  0  0  0  0
   28.4740   -2.4910   27.2900 C   0  0  0  0  0  0  0  0  0  0  0  0
   29.0710   -1.2620   27.6020 C   0  0  1  0  0  0  0  0  0  0  0  0
   32.6340    0.3000   28.1500 C   0  0  2  0  0  0  0  0  0  0  0  0
   33.4360   -0.0900   29.1840 C   0  0  0  0  0  0  0  0  0  0  0  0
   34.8240    0.0560   29.1090 C   0  0  0  0  0  0  0  0  0  0  0  0
   35.4420    0.6200   28.0390 C   0  0  0  0  0  0  0  0  0  0  0  0
   34.6430    1.0410   27.0100 C   0  0  0  0  0  0  0  0  0  0  0  0
   33.2730    0.8840   27.0610 C   0  0  0  0  0  0  0  0  0  0  0  0
   31.2430   -1.6190   26.2880 C   0  0  1  0  0  0  0  0  0  0  0  0
   30.8560   -1.0220   25.1000 C   0  0  0  0  0  0  0  0  0  0  0  0
   31.4020   -1.4080   23.9250 C   0  0  0  0  0  0  0  0  0  0  0  0
   32.4100   -2.3430   23.9080 C   0  0  0  0  0  0  0  0  0  0  0  0
   32.8220   -2.9300   25.1000 C   0  0  0  0  0  0  0  0  0  0  0  0
   32.2590   -2.5440   26.2920 C   0  0  0  0  0  0  0  0  0  0  0  0
   33.5770   -3.8530   22.3690 C   0  0  0  0  0  0  0  0  0  0  0  0
   33.9300   -3.8110   20.8910 C   0  0  0  0  0  0  0  0  0  0  0  0
   33.2670   -4.5360   18.6110 C   0  0  0  0  0  0  0  0  0  0  0  0
   32.4280   -3.7850   17.5600 C   0  0  0  0  0  0  0  0  0  0  0  0
   24.9990   -1.5350   26.8360 O   0  0  0  0  0  0  0  0  0  0  0  0
   32.9650   -2.6410   22.6680 O   0  0  0  0  0  0  0  0  0  0  0  0
   32.8200   -4.1310   19.9780 N   0  0  0  0  0  0  0  0  0  0  0  0
   31.2350   -3.2320   18.3620 C   0  0  0  0  0  0  0  0  0  0  0  0
   31.9510   -2.9520   19.7090 C   0  0  0  0  0  0  0  0  0  0  0  0
  2  1  1  0
  2  3  1  6
  4  3  1  0
  5  4  1  0
  6  5  1  0
  7  6  1  0
  8  7  1  0
  9  8  1  0
 10  9  1  6
 10  5  1  0
 10  1  1  0
 11  2  1  0
 11 12  1  1
 13 12  1  0
 14 13  1  0
 15 14  1  0
 16 11  1  0
 16 15  1  0
  1 17  1  6
 17 18  1  1
 19 18  1  0
 20 19  1  0
 21 20  1  0
 22 17  1  0
 22 21  1  0
 24 23  1  0
 26 25  1  0
 27  7  1  0
 28 20  1  0
 28 23  1  0
 29 25  1  0
 29 24  1  0
 30 26  1  0
 31 30  1  0
 31 29  1  0
M  END
$$$$
7RNM
     RDKit          3D

 57 57  0  0  0  0  0  0  0  0999 V2000
    2.8620  -15.0350   -8.3690 N   0  0  0  0  0  0  0  0  0  0  0  0
    2.9370  -15.8510   -9.5760 C   0  0  2  0  0  0  0  0  0  0  0  0
    3.8850  -15.2250  -10.5960 C   0  0  0  0  0  0  0  0  0  0  0  0
    4.8810  -15.8360  -10.9870 O   0  0  0  0  0  0  0  0  0  0  0  0
    1.5470  -16.0330  -10.1870 C   0  0  0  0  0  0  0  0  0  0  0  0
    3.5650  -13.9990  -11.0200 N   0  0  0  0  0  0  0  0  0  0  0  0
    4.4130  -13.2890  -11.9750 C   0  0  2  0  0  0  0  0  0  0  0  0
    5.7830  -13.0130  -11.3680 C   0  0  0  0  0  0  0  0  0  0  0  0
    6.8130  -13.1100  -12.0470 O   0  0  0  0  0  0  0  0  0  0  0  0
    3.7250  -11.9890  -12.4300 C   0  0  2  0  0  0  0  0  0  0  0  0
    2.5010  -12.3040  -13.2890 C   0  0  0  0  0  0  0  0  0  0  0  0
    4.6940  -11.1060  -13.2050 C   0  0  0  0  0  0  0  0  0  0  0  0
    1.7440  -11.0700  -13.7350 C   0  0  0  0  0  0  0  0  0  0  0  0
    5.8130  -12.6670  -10.0780 N   0  0  0  0  0  0  0  0  0  0  0  0
    7.0780  -12.4060   -9.3960 C   0  0  2  0  0  0  0  0  0  0  0  0
    7.9720  -13.6430   -9.3900 C   0  0  0  0  0  0  0  0  0  0  0  0
    9.1960  -13.5310   -9.5290 O   0  0  0  0  0  0  0  0  0  0  0  0
    6.8030  -11.9310   -7.9690 C   0  0  0  0  0  0  0  0  0  0  0  0
    7.8950  -11.2370   -7.1490 C   0  0  0  0  0  0  0  0  0  0  0  0
    8.6430  -10.2040   -7.9700 C   0  0  0  0  0  0  0  0  0  0  0  0
    7.3030  -10.6000   -5.8990 C   0  0  0  0  0  0  0  0  0  0  0  0
    7.3770  -14.8290   -9.2270 N   0  0  0  0  0  0  0  0  0  0  0  0
    8.1430  -16.0740   -9.2600 C   0  0  2  0  0  0  0  0  0  0  0  0
    8.9120  -16.2170  -10.5690 C   0  0  0  0  0  0  0  0  0  0  0  0
   10.1370  -16.3890  -10.5730 O   0  0  0  0  0  0  0  0  0  0  0  0
    7.2150  -17.2760   -9.0620 C   0  0  0  0  0  0  0  0  0  0  0  0
    6.8870  -17.5690   -7.6310 C   0  0  0  0  0  0  0  0  0  0  0  0
    5.8230  -16.9880   -6.9740 N   0  0  0  0  0  0  0  0  0  0  0  0
    7.4720  -18.4000   -6.7360 C   0  0  0  0  0  0  0  0  0  0  0  0
    5.7740  -17.4400   -5.7340 C   0  0  0  0  0  0  0  0  0  0  0  0
    6.7640  -18.2970   -5.5630 N   0  0  0  0  0  0  0  0  0  0  0  0
    8.1980  -16.1680  -11.6970 N   0  0  0  0  0  0  0  0  0  0  0  0
    8.8540  -16.2960  -12.9950 C   0  0  2  0  0  0  0  0  0  0  0  0
    9.8590  -15.1750  -13.2140 C   0  0  0  0  0  0  0  0  0  0  0  0
   10.9260  -15.3890  -13.8050 O   0  0  0  0  0  0  0  0  0  0  0  0
    7.8090  -16.3050  -14.1120 C   0  0  0  0  0  0  0  0  0  0  0  0
    9.5390  -13.9710  -12.7340 N   0  0  0  0  0  0  0  0  0  0  0  0
   10.4240  -12.8330  -12.9410 C   0  0  2  0  0  0  0  0  0  0  0  0
   11.7320  -13.0210  -12.1840 C   0  0  0  0  0  0  0  0  0  0  0  0
   12.8040  -12.6470  -12.6760 O   0  0  0  0  0  0  0  0  0  0  0  0
    9.7110  -11.5490  -12.5120 C   0  0  0  0  0  0  0  0  0  0  0  0
    9.0830  -10.7640  -13.6690 C   0  0  0  0  0  0  0  0  0  0  0  0
    8.6220   -9.3830  -13.2480 C   0  0  0  0  0  0  0  0  0  0  0  0
   10.0500  -10.6650  -14.8260 C   0  0  0  0  0  0  0  0  0  0  0  0
   11.6640  -13.6210  -10.9930 N   0  0  0  0  0  0  0  0  0  0  0  0
   12.8750  -13.9030  -10.2300 C   0  0  2  0  0  0  0  0  0  0  0  0
   13.6820  -15.0250  -10.8730 C   0  0  0  0  0  0  0  0  0  0  0  0
   14.9180  -14.9860  -10.8750 O   0  0  0  0  0  0  0  0  0  0  0  0
   12.5090  -14.2500   -8.7870 C   0  0  0  0  0  0  0  0  0  0  0  0
   12.1850  -13.0500   -7.8930 C   0  0  0  0  0  0  0  0  0  0  0  0
   11.3910  -13.4780   -6.6790 C   0  0  0  0  0  0  0  0  0  0  0  0
   13.4570  -12.3420   -7.4660 C   0  0  0  0  0  0  0  0  0  0  0  0
   13.0030  -16.0220  -11.4340 N   0  0  0  0  0  0  0  0  0  0  0  0
   13.6760  -17.1150  -12.1300 C   0  0  2  0  0  0  0  0  0  0  0  0
   14.2320  -16.6390  -13.4690 C   0  0  0  0  0  0  0  0  0  0  0  0
   15.4380  -16.6940  -13.7090 O   0  0  0  0  0  0  0  0  0  0  0  0
   12.7170  -18.2890  -12.3420 C   0  0  0  0  0  0  0  0  0  0  0  0
  2  1  1  0
  3  2  1  0
  4  3  2  0
  2  5  1  6
  6  3  1  0
  7  6  1  1
  8  7  1  0
  9  8  2  0
 10  7  1  0
 11 10  1  0
 10 12  1  6
 13 11  1  0
 14  8  1  0
 15 14  1  0
 16 15  1  0
 17 16  2  0
 15 18  1  1
 19 18  1  0
 20 19  1  0
 21 19  1  0
 22 16  1  0
 23 22  1  0
 24 23  1  0
 25 24  2  0
 23 26  1  6
 27 26  1  0
 28 27  1  0
 29 27  2  0
 30 28  2  0
 31 30  1  0
 31 29  1  0
 32 24  1  0
 33 32  1  0
 34 33  1  0
 35 34  2  0
 33 36  1  6
 37 34  1  0
 38 37  1  0
 39 38  1  0
 40 39  2  0
 38 41  1  1
 42 41  1  0
 43 42  1  0
 44 42  1  0
 45 39  1  0
 46 45  1  0
 47 46  1  0
 48 47  2  0
 46 49  1  1
 50 49  1  0
 51 50  1  0
 52 50  1  0
 53 47  1  0
 54 53  1  0
 55 54  1  0
 56 55  2  0
 54 57  1  6
M  END
$$$$
5DI7
     RDKit          3D

 19 21  0  0  0  0  0  0  0  0999 V2000
   -4.3100   -3.6810   24.4850 C   0  0  0  0  0  0  0  0  0  0  0  0
   -2.9860   -3.8670   24.5930 C   0  0  0  0  0  0  0  0  0  0  0  0
   -2.3320   -4.2430   23.4830 C   0  0  0  0  0  0  0  0  0  0  0  0
   -2.9460   -4.4350   22.3000 C   0  0  0  0  0  0  0  0  0  0  0  0
   -4.2830   -4.2450   22.1980 C   0  0  0  0  0  0  0  0  0  0  0  0
   -4.9350   -3.8680   23.3130 C   0  0  0  0  0  0  0  0  0  0  0  0
   -5.0250   -4.4510   20.8760 C   0  0  2  0  0  0  0  0  0  0  0  0
   -5.9370   -3.3180   20.3640 C   0  0  0  0  0  0  0  0  0  0  0  0
   -6.7190   -3.5610   19.0550 C   0  0  2  0  0  0  0  0  0  0  0  0
   -7.2980   -4.9870   18.9060 C   0  0  2  0  0  0  0  0  0  0  0  0
   -6.3760   -6.0870   19.4730 C   0  0  0  0  0  0  0  0  0  0  0  0
   -5.7790   -5.7890   20.8510 C   0  0  0  0  0  0  0  0  0  0  0  0
   -5.7980   -3.3850   17.8250 C   0  0  0  0  0  0  0  0  0  0  0  0
   -6.2830   -4.3930   16.7670 C   0  0  0  0  0  0  0  0  0  0  0  0
   -7.4930   -5.0870   17.3880 C   0  0  2  0  0  0  0  0  0  0  0  0
   -8.6960   -4.5030   16.9570 O   0  0  0  0  0  0  0  0  0  0  0  0
   -8.6550   -5.0790   19.6430 C   0  0  0  0  0  0  0  0  0  0  0  0
   -2.3310   -3.6840   25.7700 O   0  0  0  0  0  0  0  0  0  0  0  0
   -2.0950   -4.8600   21.1190 C   0  0  0  0  0  0  0  0  0  0  0  0
  2  1  1  0
  3  2  1  0
  4  3  1  0
  5  4  1  0
  6  5  1  0
  6  1  1  0
  7  5  1  1
  8  7  1  0
  9  8  1  1
 10  9  1  0
 11 10  1  0
 12 11  1  0
 12  7  1  0
 13  9  1  0
 14 13  1  0
 15 14  1  0
 15 10  1  0
 15 16  1  1
 10 17  1  1
 18  2  1  0
 19  4  1  0
M  END
$$$$
5FQR
     RDKit          3D

 26 28  0  0  0  0  0  0  0  0999 V2000
   10.5930   20.6880   63.2660 C   0  0  0  0  0  0  0  0  0  0  0  0
   11.2440   21.9170   63.8570 C   0  0  1  0  0  0  0  0  0  0  0  0
   11.2870   21.7600   65.3590 C   0  0  0  0  0  0  0  0  0  0  0  0
   12.6370   22.0630   63.2600 C   0  0  0  0  0  0  0  0  0  0  0  0
   13.3150   23.2770   63.7860 N   0  0  0  0  0  0  0  0  0  0  0  0
   13.0260   24.4980   62.9920 C   0  0  0  0  0  0  0  0  0  0  0  0
   13.5340   25.6940   63.7630 C   0  0  0  0  0  0  0  0  0  0  0  0
   14.9990   25.5260   64.0490 C   0  0  0  0  0  0  0  0  0  0  0  0
   15.7690   26.6560   64.2100 C   0  0  0  0  0  0  0  0  0  0  0  0
   17.1090   26.5300   64.4970 C   0  0  0  0  0  0  0  0  0  0  0  0
   17.7050   25.2970   64.6120 C   0  0  0  0  0  0  0  0  0  0  0  0
   16.9300   24.1730   64.4480 C   0  0  0  0  0  0  0  0  0  0  0  0
   15.5790   24.2790   64.1720 C   0  0  0  0  0  0  0  0  0  0  0  0
   14.7760   23.0220   64.0190 C   0  0  1  0  0  0  0  0  0  0  0  0
   14.9360   22.1260   65.2150 C   0  0  0  0  0  0  0  0  0  0  0  0
   14.7190   22.6030   66.4950 C   0  0  0  0  0  0  0  0  0  0  0  0
   14.8620   21.7680   67.5880 C   0  0  0  0  0  0  0  0  0  0  0  0
   15.2250   20.4460   67.4140 C   0  0  0  0  0  0  0  0  0  0  0  0
   15.4370   19.9730   66.1390 C   0  0  0  0  0  0  0  0  0  0  0  0
   15.2940   20.8070   65.0480 C   0  0  0  0  0  0  0  0  0  0  0  0
   15.3870   19.5140   68.5310 C   0  0  0  0  0  0  0  0  0  0  0  0
   15.8440   19.9370   69.7130 C   0  0  0  0  0  0  0  0  0  0  0  0
   15.9490   18.8410   70.7610 C   0  0  0  0  0  0  0  0  0  0  0  0
   16.4510   19.2370   71.8490 O   0  0  0  0  0  0  0  0  0  0  0  0
   15.5290   17.6810   70.4490 O   0  0  0  0  0  0  0  0  0  0  0  0
   17.8660   27.6590   64.6740 O   0  0  0  0  0  0  0  0  0  0  0  0
  2  1  1  6
  3  2  1  0
  4  2  1  0
  5  4  1  0
  6  5  1  0
  7  6  1  0
  8  7  1  0
  9  8  1  0
 10  9  1  0
 11 10  1  0
 12 11  1  0
 13  8  1  0
 13 12  1  0
 14 13  1  0
 14  5  1  0
 14 15  1  1
 16 15  1  0
 17 16  1  0
 18 17  1  0
 19 18  1  0
 20 19  1  0
 20 15  1  0
 21 18  1  0
 22 21  1  0
 23 22  1  0
 24 23  1  0
 25 23  1  0
 26 10  1  0
M  END
$$$$
5TM4
     RDKit          3D

 75 75  0  0  0  0  0  0  0  0999 V2000
   15.4530   18.9720    8.8280 N   0  0  0  0  0  0  0  0  0  0  0  0
   15.7240   17.5400    8.7850 C   0  0  2  0  0  0  0  0  0  0  0  0
   14.5280   16.7390    9.2880 C   0  0  0  0  0  0  0  0  0  0  0  0
   13.8750   17.1260   10.2580 O   0  0  0  0  0  0  0  0  0  0  0  0
   16.9680   17.2030    9.6100 C   0  0  0  0  0  0  0  0  0  0  0  0
   14.2470   15.6190    8.6180 N   0  0  0  0  0  0  0  0  0  0  0  0
   13.1200   14.7790    9.0130 C   0  0  2  0  0  0  0  0  0  0  0  0
   13.3810   14.1420   10.3720 C   0  0  0  0  0  0  0  0  0  0  0  0
   12.5040   14.1200   11.2440 O   0  0  0  0  0  0  0  0  0  0  0  0
   12.8390   13.7160    7.9360 C   0  0  2  0  0  0  0  0  0  0  0  0
   12.5350   14.3830    6.5930 C   0  0  0  0  0  0  0  0  0  0  0  0
   11.6870   12.8160    8.3610 C   0  0  0  0  0  0  0  0  0  0  0  0
   12.2390   13.4040    5.4810 C   0  0  0  0  0  0  0  0  0  0  0  0
   14.5910   13.6140   10.5720 N   0  0  0  0  0  0  0  0  0  0  0  0
   14.9430   13.0260   11.8620 C   0  0  2  0  0  0  0  0  0  0  0  0
   14.8850   14.0620   12.9760 C   0  0  0  0  0  0  0  0  0  0  0  0
   14.5070   13.7460   14.1100 O   0  0  0  0  0  0  0  0  0  0  0  0
   16.3340   12.3980   11.7840 C   0  0  0  0  0  0  0  0  0  0  0  0
   16.8870   11.7490   13.0540 C   0  0  0  0  0  0  0  0  0  0  0  0
   16.0520   10.5430   13.4460 C   0  0  0  0  0  0  0  0  0  0  0  0
   18.3440   11.3600   12.8700 C   0  0  0  0  0  0  0  0  0  0  0  0
   15.2500   15.3090   12.6670 N   0  0  0  0  0  0  0  0  0  0  0  0
   15.1780   16.3790   13.6570 C   0  0  2  0  0  0  0  0  0  0  0  0
   13.7390   16.6440   14.0860 C   0  0  0  0  0  0  0  0  0  0  0  0
   13.4680   16.8770   15.2700 O   0  0  0  0  0  0  0  0  0  0  0  0
   15.8200   17.6450   13.0880 C   0  0  0  0  0  0  0  0  0  0  0  0
   15.3950   18.9060   13.7730 C   0  0  0  0  0  0  0  0  0  0  0  0
   16.0790   19.4390   14.8450 N   0  0  0  0  0  0  0  0  0  0  0  0
   14.3620   19.7470   13.5300 C   0  0  0  0  0  0  0  0  0  0  0  0
   15.4820   20.5510   15.2350 C   0  0  0  0  0  0  0  0  0  0  0  0
   14.4350   20.7590   14.4560 N   0  0  0  0  0  0  0  0  0  0  0  0
   12.8000   16.6080   13.1370 N   0  0  0  0  0  0  0  0  0  0  0  0
   11.4110   16.9140   13.4640 C   0  0  2  0  0  0  0  0  0  0  0  0
   10.7500   15.7690   14.2220 C   0  0  0  0  0  0  0  0  0  0  0  0
   10.0210   16.0020   15.1940 O   0  0  0  0  0  0  0  0  0  0  0  0
   10.6300   17.2330   12.1890 C   0  0  0  0  0  0  0  0  0  0  0  0
    9.1670   17.5660   12.4270 C   0  0  0  0  0  0  0  0  0  0  0  0
    8.4580   17.9130   11.1290 C   0  0  0  0  0  0  0  0  0  0  0  0
    8.4510   16.7960   10.1890 N   0  0  0  0  0  0  0  0  0  0  0  0
    7.4690   15.9060   10.0930 C   0  0  0  0  0  0  0  0  0  0  0  0
    6.4080   15.9990   10.8830 N   0  0  0  0  0  0  0  0  0  0  0  0
    7.5460   14.9220    9.2070 N   0  0  0  0  0  0  0  0  0  0  0  0
   10.9910   14.5270   13.7960 N   0  0  0  0  0  0  0  0  0  0  0  0
   10.3570   13.3870   14.4510 C   0  0  2  0  0  0  0  0  0  0  0  0
   10.8290   13.2310   15.8910 C   0  0  0  0  0  0  0  0  0  0  0  0
   10.0750   12.7380   16.7380 O   0  0  0  0  0  0  0  0  0  0  0  0
   10.6250   12.1060   13.6610 C   0  0  0  0  0  0  0  0  0  0  0  0
   10.1290   12.0960   12.2120 C   0  0  0  0  0  0  0  0  0  0  0  0
   10.2510   10.7070   11.6040 C   0  0  0  0  0  0  0  0  0  0  0  0
    8.6970   12.6030   12.1240 C   0  0  0  0  0  0  0  0  0  0  0  0
   12.0620   13.6440   16.1890 N   0  0  0  0  0  0  0  0  0  0  0  0
   12.5440   13.5970   17.5640 C   0  0  2  0  0  0  0  0  0  0  0  0
   11.9360   14.6930   18.4290 C   0  0  0  0  0  0  0  0  0  0  0  0
   11.9860   14.5910   19.6590 O   0  0  0  0  0  0  0  0  0  0  0  0
   14.0690   13.6970   17.5910 C   0  0  0  0  0  0  0  0  0  0  0  0
   14.8330   12.4340   17.1900 C   0  0  0  0  0  0  0  0  0  0  0  0
   16.3110   12.7370   17.0150 C   0  0  0  0  0  0  0  0  0  0  0  0
   14.6300   11.3450   18.2310 C   0  0  0  0  0  0  0  0  0  0  0  0
   11.3660   15.7340   17.8190 N   0  0  0  0  0  0  0  0  0  0  0  0
   10.7360   16.8160   18.5670 C   0  0  2  0  0  0  0  0  0  0  0  0
    9.2640   16.5470   18.8540 C   0  0  0  0  0  0  0  0  0  0  0  0
    8.7670   16.9200   19.9230 O   0  0  0  0  0  0  0  0  0  0  0  0
   10.8770   18.1380   17.8080 C   0  0  0  0  0  0  0  0  0  0  0  0
   12.0970   18.9570   18.1930 C   0  0  0  0  0  0  0  0  0  0  0  0
   12.1270   20.3070   17.5050 C   0  0  0  0  0  0  0  0  0  0  0  0
   11.4670   20.5120   16.4860 O   0  0  0  0  0  0  0  0  0  0  0  0
   12.8910   21.2400   18.0630 N   0  0  0  0  0  0  0  0  0  0  0  0
    8.5560   15.9140   17.9230 N   0  0  0  0  0  0  0  0  0  0  0  0
    7.1330   15.6360   18.0950 C   0  0  2  0  0  0  0  0  0  0  0  0
    6.8890   14.6710   19.2520 C   0  0  0  0  0  0  0  0  0  0  0  0
    6.2270   15.0180   20.2300 O   0  0  0  0  0  0  0  0  0  0  0  0
    6.5370   15.0660   16.8060 C   0  0  0  0  0  0  0  0  0  0  0  0
    6.5780   16.0560   15.6570 C   0  0  0  0  0  0  0  0  0  0  0  0
    6.8890   15.6370   14.5230 O   0  0  0  0  0  0  0  0  0  0  0  0
    6.2960   17.2510   15.8870 O   0  0  0  0  0  0  0  0  0  0  0  0
  2  1  1  0
  3  2  1  0
  4  3  2  0
  2  5  1  1
  6  3  1  0
  7  6  1  6
  8  7  1  0
  9  8  2  0
 10  7  1  0
 11 10  1  0
 10 12  1  1
 13 11  1  0
 14  8  1  0
 15 14  1  0
 16 15  1  0
 17 16  2  0
 15 18  1  6
 19 18  1  0
 20 19  1  0
 21 19  1  0
 22 16  1  0
 23 22  1  0
 24 23  1  0
 25 24  2  0
 23 26  1  6
 27 26  1  0
 28 27  1  0
 29 27  2  0
 30 28  2  0
 31 30  1  0
 31 29  1  0
 32 24  1  0
 33 32  1  0
 34 33  1  0
 35 34  2  0
 33 36  1  6
 37 36  1  0
 38 37  1  0
 39 38  1  0
 40 39  1  0
 41 40  1  0
 42 40  2  0
 43 34  1  0
 44 43  1  0
 45 44  1  0
 46 45  2  0
 44 47  1  6
 48 47  1  0
 49 48  1  0
 50 48  1  0
 51 45  1  0
 52 51  1  0
 53 52  1  0
 54 53  2  0
 52 55  1  6
 56 55  1  0
 57 56  1  0
 58 56  1  0
 59 53  1  0
 60 59  1  0
 61 60  1  0
 62 61  2  0
 60 63  1  6
 64 63  1  0
 65 64  1  0
 66 65  2  0
 67 65  1  0
 68 61  1  0
 69 68  1  0
 70 69  1  0
 71 70  2  0
 69 72  1  6
 73 72  1  0
 74 73  2  0
 75 73  1  0
M  END
$$$$
5TMU
     RDKit          3D

 22 24  0  0  0  0  0  0  0  0999 V2000
   -6.9590   -0.1530   19.0040 O   0  0  0  0  0  0  0  0  0  0  0  0
   -6.3950    0.9490   19.6710 C   0  0  0  0  0  0  0  0  0  0  0  0
   -6.8730    2.2250   19.4250 C   0  0  0  0  0  0  0  0  0  0  0  0
   -6.3150    3.3110   20.0820 C   0  0  0  0  0  0  0  0  0  0  0  0
   -5.2840    3.1210   20.9910 C   0  0  0  0  0  0  0  0  0  0  0  0
   -4.6670    4.3030   21.7070 C   0  0  2  0  0  0  0  0  0  0  0  0
   -3.2320    4.6630   21.3740 C   0  0  0  0  0  0  0  0  0  0  0  0
   -2.3000    4.8890   22.3760 C   0  0  0  0  0  0  0  0  0  0  0  0
   -0.9940    5.2140   22.0440 C   0  0  0  0  0  0  0  0  0  0  0  0
   -0.6120    5.3000   20.7150 C   0  0  0  0  0  0  0  0  0  0  0  0
    0.7160    5.6250   20.3830 O   0  0  0  0  0  0  0  0  0  0  0  0
   -1.5380    5.0650   19.7110 C   0  0  0  0  0  0  0  0  0  0  0  0
   -2.8450    4.7450   20.0440 C   0  0  0  0  0  0  0  0  0  0  0  0
   -5.3660    4.9720   22.6520 C   0  0  1  0  0  0  0  0  0  0  0  0
   -5.2450    6.4790   22.7630 C   0  0  0  0  0  0  0  0  0  0  0  0
   -6.5900    7.1720   22.7600 C   0  0  0  0  0  0  0  0  0  0  0  0
   -7.1870    7.3050   24.1420 C   0  0  0  0  0  0  0  0  0  0  0  0
   -7.8180    6.0190   24.6230 C   0  0  0  0  0  0  0  0  0  0  0  0
   -6.8220    4.8860   24.7070 C   0  0  0  0  0  0  0  0  0  0  0  0
   -6.5050    4.2710   23.3640 C   0  0  0  0  0  0  0  0  0  0  0  0
   -4.8040    1.8440   21.2310 C   0  0  0  0  0  0  0  0  0  0  0  0
   -5.3600    0.7580   20.5730 C   0  0  0  0  0  0  0  0  0  0  0  0
  2  1  1  0
  3  2  1  0
  4  3  1  0
  5  4  1  0
  6  5  1  1
  7  6  1  0
  8  7  1  0
  9  8  1  0
 10  9  1  0
 11 10  1  0
 12 10  1  0
 13 12  1  0
 13  7  1  0
 14  6  1  0
 14 15  1  6
 16 15  1  0
 17 16  1  0
 18 17  1  0
 19 18  1  0
 20 19  1  0
 20 14  1  0
 21  5  1  0
 22  2  1  0
 22 21  1  0
M  END
$$$$
5TLF
     RDKit          3D

 26 28  0  0  0  0  0  0  0  0999 V2000
   20.6970   -2.2250    2.6990 O   0  0  0  0  0  0  0  0  0  0  0  0
   19.3560   -1.8050    2.6320 C   0  0  0  0  0  0  0  0  0  0  0  0
   18.8130   -1.4380    1.4130 C   0  0  0  0  0  0  0  0  0  0  0  0
   17.4920   -1.0230    1.3460 C   0  0  0  0  0  0  0  0  0  0  0  0
   16.9390   -0.6560    0.1090 O   0  0  0  0  0  0  0  0  0  0  0  0
   16.7160   -0.9710    2.4930 C   0  0  0  0  0  0  0  0  0  0  0  0
   17.2610   -1.3350    3.7130 C   0  0  0  0  0  0  0  0  0  0  0  0
   18.5830   -1.7520    3.7850 C   0  0  0  0  0  0  0  0  0  0  0  0
   19.1740   -2.1410    5.1220 C   0  0  0  0  0  0  0  0  0  0  0  0
   18.7530   -3.2020    5.9410 C   0  0  0  0  0  0  0  0  0  0  0  0
   19.5500   -3.1970    7.0510 C   0  0  0  0  0  0  0  0  0  0  0  0
   19.3560   -4.1700    8.0640 C   0  0  0  0  0  0  0  0  0  0  0  0
   20.2460   -4.1490    9.2860 C   0  0  2  0  0  0  0  0  0  0  0  0
   21.5050   -4.4250    8.9140 F   0  0  0  0  0  0  0  0  0  0  0  0
   19.8320   -5.0650   10.1680 F   0  0  0  0  0  0  0  0  0  0  0  0
   20.1930   -2.9320    9.8440 F   0  0  0  0  0  0  0  0  0  0  0  0
   18.3530   -5.1260    7.9290 C   0  0  0  0  0  0  0  0  0  0  0  0
   17.5400   -5.1330    6.7940 C   0  0  0  0  0  0  0  0  0  0  0  0
   17.7310   -4.1790    5.8000 C   0  0  0  0  0  0  0  0  0  0  0  0
   20.4550   -2.1430    6.9260 N   0  0  0  0  0  0  0  0  0  0  0  0
   20.1940   -1.5230    5.7420 N   0  0  0  0  0  0  0  0  0  0  0  0
   20.8810   -0.3920    5.2160 C   0  0  0  0  0  0  0  0  0  0  0  0
   22.1630   -0.0560    5.9450 C   0  0  0  0  0  0  0  0  0  0  0  0
   23.3160   -0.6610    5.6040 C   0  0  0  0  0  0  0  0  0  0  0  0
   23.3240   -1.6980    4.5090 C   0  0  0  0  0  0  0  0  0  0  0  0
   24.6000   -0.3170    6.3240 C   0  0  0  0  0  0  0  0  0  0  0  0
  2  1  1  0
  3  2  1  0
  4  3  1  0
  5  4  1  0
  6  4  1  0
  7  6  1  0
  8  7  1  0
  8  2  1  0
  9  8  1  0
 10  9  1  0
 11 10  1  0
 12 11  1  0
 13 12  1  0
 13 14  1  6
 15 13  1  0
 16 13  1  0
 17 12  1  0
 18 17  1  0
 19 18  1  0
 19 10  1  0
 20 11  1  0
 21  9  1  0
 21 20  1  0
 22 21  1  0
 23 22  1  0
 24 23  1  0
 25 24  1  0
 26 24  1  0
M  END
$$$$
8DUG
     RDKit          3D

 36 41  0  0  0  0  0  0  0  0999 V2000
   -8.2310   -5.3170   15.3470 N   0  0  0  0  0  0  0  0  0  0  0  0
   -8.4460   -1.0780   15.9330 C   0  0  0  0  0  0  0  0  0  0  0  0
   -8.4050   -2.5890   15.8490 C   0  0  0  0  0  0  0  0  0  0  0  0
   -7.2860   -3.2260   16.1110 C   0  0  0  0  0  0  0  0  0  0  0  0
   -9.6620   -3.3360   15.4260 C   0  0  0  0  0  0  0  0  0  0  0  0
   -9.5750   -4.8520   15.5130 C   0  0  2  0  0  0  0  0  0  0  0  0
  -10.6970   -5.4850   16.3420 C   0  0  0  0  0  0  0  0  0  0  0  0
   -8.9240   -7.1900   13.5560 C   0  0  2  0  0  0  0  0  0  0  0  0
  -10.1770   -9.1100   12.7700 C   0  0  0  0  0  0  0  0  0  0  0  0
  -10.3240   -7.0290   11.5540 C   0  0  0  0  0  0  0  0  0  0  0  0
   -6.0530   -6.1960   17.6570 C   0  0  0  0  0  0  0  0  0  0  0  0
   -5.8890   -6.7700   19.0450 C   0  0  0  0  0  0  0  0  0  0  0  0
   -6.6680   -6.3760   20.0090 C   0  0  0  0  0  0  0  0  0  0  0  0
   -7.9040   -4.8500   18.5470 C   0  0  0  0  0  0  0  0  0  0  0  0
   -5.2920   -7.5160   23.1200 C   0  0  0  0  0  0  0  0  0  0  0  0
   -5.6970   -4.6650   24.7780 C   0  0  0  0  0  0  0  0  0  0  0  0
   -6.0380   -2.4490   16.5360 C   0  0  0  0  0  0  0  0  0  0  0  0
  -10.8970   -5.3480   14.8840 C   0  0  0  0  0  0  0  0  0  0  0  0
   -7.9330   -6.4430   14.4630 C   0  0  1  0  0  0  0  0  0  0  0  0
   -9.2210   -8.4250   13.7410 C   0  0  0  0  0  0  0  0  0  0  0  0
  -10.6940   -8.4680   11.7660 C   0  0  0  0  0  0  0  0  0  0  0  0
   -9.5070   -6.4510   12.3770 C   0  0  0  0  0  0  0  0  0  0  0  0
   -6.9910   -5.3060   17.4400 C   0  0  0  0  0  0  0  0  0  0  0  0
   -6.0840   -1.1580   16.6040 C   0  0  0  0  0  0  0  0  0  0  0  0
   -7.7520   -5.3550   19.7270 C   0  0  0  0  0  0  0  0  0  0  0  0
   -5.2930   -7.4080   21.6020 C   0  0  0  0  0  0  0  0  0  0  0  0
   -6.1840   -5.6970   23.7830 C   0  0  0  0  0  0  0  0  0  0  0  0
   -4.6420   -5.3680   25.3990 C   0  0  2  0  0  0  0  0  0  0  0  0
   -7.3650   -0.4330   16.2770 C   0  0  0  0  0  0  0  0  0  0  0  0
   -4.3870   -6.6080   24.6810 C   0  0  0  0  0  0  0  0  0  0  0  0
   -5.0960   -5.9000   26.8190 C   0  0  0  0  0  0  0  0  0  0  0  0
   -7.1620   -4.7240   16.0560 C   0  0  1  0  0  0  0  0  0  0  0  0
   -5.0110   -6.4400   23.5330 N   0  0  0  0  0  0  0  0  0  0  0  0
   -6.8410   -6.7630   14.3920 O   0  0  0  0  0  0  0  0  0  0  0  0
   -7.4100    0.9250   16.3570 O   0  0  0  0  0  0  0  0  0  0  0  0
   -6.5280   -6.8920   21.2920 O   0  0  0  0  0  0  0  0  0  0  0  0
  3  2  1  0
  4  3  1  0
  5  3  1  0
  6  5  1  1
  6  1  1  0
  7  6  1  0
 12 11  1  0
 13 12  1  0
 17  4  1  0
 18  7  1  0
 18  6  1  0
 19  8  1  0
 19  1  1  0
 20  9  1  0
  8 20  1  6
 21 10  1  0
 21  9  1  0
 22 10  1  0
 22  8  1  0
 23 11  1  0
 23 14  1  0
 24 17  1  0
 25 13  1  0
 25 14  1  0
 26 15  1  0
 27 16  1  0
 28 16  1  0
 29  2  1  0
 29 24  1  0
 30 28  1  0
 28 31  1  1
 32  4  1  0
 32  1  1  0
 32 23  1  1
 33 27  1  0
 33 30  1  0
 33 15  1  0
 19 34  1  6
 35 29  1  0
 36 13  1  0
 36 26  1  0
M  END
$$$$
7UJC
     RDKit          3D

 34 38  0  0  0  0  0  0  0  0999 V2000
   -3.5010  -28.3470   26.4150 C   0  0  0  0  0  0  0  0  0  0  0  0
   -3.5690  -26.9910   26.2730 C   0  0  0  0  0  0  0  0  0  0  0  0
   -2.4750  -26.1920   26.5870 C   0  0  0  0  0  0  0  0  0  0  0  0
   -2.6020  -24.8510   26.4540 O   0  0  0  0  0  0  0  0  0  0  0  0
   -1.2980  -26.7620   27.0250 C   0  0  0  0  0  0  0  0  0  0  0  0
   -1.2190  -28.1400   27.1370 C   0  0  0  0  0  0  0  0  0  0  0  0
    0.1430  -29.0810   27.6600 S   0  0  0  0  0  0  0  0  0  0  0  0
   -0.7320  -30.5650   27.4960 C   0  0  0  0  0  0  0  0  0  0  0  0
   -0.1020  -31.8480   27.8520 C   0  0  1  0  0  0  0  0  0  0  0  0
    0.5450  -32.0160   29.0630 C   0  0  0  0  0  0  0  0  0  0  0  0
    1.0840  -33.2340   29.4330 C   0  0  0  0  0  0  0  0  0  0  0  0
    0.9790  -34.3240   28.5870 C   0  0  0  0  0  0  0  0  0  0  0  0
    1.5040  -35.5200   28.9520 O   0  0  0  0  0  0  0  0  0  0  0  0
    0.3420  -34.1790   27.3720 C   0  0  0  0  0  0  0  0  0  0  0  0
   -0.2160  -32.9580   27.0280 C   0  0  0  0  0  0  0  0  0  0  0  0
   -2.3210  -28.9480   26.8420 C   0  0  0  0  0  0  0  0  0  0  0  0
   -1.9910  -30.3540   27.0380 C   0  0  1  0  0  0  0  0  0  0  0  0
   -2.8910  -31.4550   26.6800 C   0  0  0  0  0  0  0  0  0  0  0  0
   -3.3890  -32.0980   27.5520 O   0  0  0  0  0  0  0  0  0  0  0  0
   -3.1710  -31.8190   25.2600 C   0  0  0  0  0  0  0  0  0  0  0  0
   -4.2140  -32.6340   24.8660 C   0  0  0  0  0  0  0  0  0  0  0  0
   -4.4490  -32.9080   23.5340 C   0  0  0  0  0  0  0  0  0  0  0  0
   -3.6260  -32.3860   22.5600 C   0  0  0  0  0  0  0  0  0  0  0  0
   -2.5800  -31.5770   22.9410 C   0  0  0  0  0  0  0  0  0  0  0  0
   -2.3820  -31.2840   24.2650 C   0  0  0  0  0  0  0  0  0  0  0  0
   -3.7930  -32.6770   21.2400 O   0  0  0  0  0  0  0  0  0  0  0  0
   -5.1290  -32.8040   20.7840 C   0  0  0  0  0  0  0  0  0  0  0  0
   -5.0990  -33.1910   19.3420 C   0  0  0  0  0  0  0  0  0  0  0  0
   -5.0850  -32.0250   18.4780 N   0  0  0  0  0  0  0  0  0  0  0  0
   -4.6920  -32.4080   17.1350 C   0  0  0  0  0  0  0  0  0  0  0  0
   -4.6420  -31.2210   16.2150 C   0  0  0  0  0  0  0  0  0  0  0  0
   -3.6810  -30.2010   16.7730 C   0  0  0  0  0  0  0  0  0  0  0  0
   -4.1170  -29.8130   18.1620 C   0  0  0  0  0  0  0  0  0  0  0  0
   -4.1760  -31.0330   19.0190 C   0  0  0  0  0  0  0  0  0  0  0  0
  2  1  1  0
  3  2  1  0
  4  3  1  0
  5  3  1  0
  6  5  1  0
  7  6  1  0
  8  7  1  0
  9  8  1  1
 10  9  1  0
 11 10  1  0
 12 11  1  0
 13 12  1  0
 14 12  1  0
 15 14  1  0
 15  9  1  0
 16  6  1  0
 16  1  1  0
 17 16  1  0
 17  8  1  0
 17 18  1  6
 19 18  1  0
 20 18  1  0
 21 20  1  0
 22 21  1  0
 23 22  1  0
 24 23  1  0
 25 24  1  0
 25 20  1  0
 26 23  1  0
 27 26  1  0
 28 27  1  0
 29 28  1  0
 30 29  1  0
 31 30  1  0
 32 31  1  0
 33 32  1  0
 34 33  1  0
 34 29  1  0
M  END
$$$$
6SUO
     RDKit          3D

 38 37  0  0  0  0  0  0  0  0999 V2000
   57.2890   -7.6810    1.4710 N   0  0  0  0  0  0  0  0  0  0  0  0
   58.3480   -8.5160    0.8980 C   0  0  2  0  0  0  0  0  0  0  0  0
   59.1650   -9.2270    1.9660 C   0  0  0  0  0  0  0  0  0  0  0  0
   59.3890  -10.4320    1.8460 O   0  0  0  0  0  0  0  0  0  0  0  0
   59.2650   -7.6970   -0.0230 C   0  0  0  0  0  0  0  0  0  0  0  0
   59.6160   -8.4850    3.0070 N   0  0  0  0  0  0  0  0  0  0  0  0
   60.3970   -9.0250    4.1230 C   0  0  2  0  0  0  0  0  0  0  0  0
   59.5940  -10.1000    4.8440 C   0  0  0  0  0  0  0  0  0  0  0  0
   60.1060  -11.1870    5.1010 O   0  0  0  0  0  0  0  0  0  0  0  0
   60.7850   -7.9070    5.1020 C   0  0  0  0  0  0  0  0  0  0  0  0
   58.3120   -9.7950    5.1060 N   0  0  0  0  0  0  0  0  0  0  0  0
   57.3350  -10.6490    5.7720 C   0  0  2  0  0  0  0  0  0  0  0  0
   57.0480  -11.9170    4.9790 C   0  0  0  0  0  0  0  0  0  0  0  0
   56.9350  -12.9810    5.5810 O   0  0  0  0  0  0  0  0  0  0  0  0
   56.0430   -9.8640    6.0610 C   0  0  0  0  0  0  0  0  0  0  0  0
   56.1700   -8.7150    7.0780 C   0  0  0  0  0  0  0  0  0  0  0  0
   56.3720   -7.3780    6.3800 C   0  0  0  0  0  0  0  0  0  0  0  0
   54.9520   -8.6240    7.9390 C   0  0  0  0  0  0  0  0  0  0  0  0
   56.9790  -11.8100    3.6300 N   0  0  0  0  0  0  0  0  0  0  0  0
   56.7340  -12.9340    2.7290 C   0  0  2  0  0  0  0  0  0  0  0  0
   57.9280  -13.8940    2.7360 C   0  0  0  0  0  0  0  0  0  0  0  0
   57.7370  -15.1070    2.8710 O   0  0  0  0  0  0  0  0  0  0  0  0
   56.4380  -12.4250    1.3050 C   0  0  0  0  0  0  0  0  0  0  0  0
   59.1570  -13.3460    2.6250 N   0  0  0  0  0  0  0  0  0  0  0  0
   60.3940  -14.1320    2.6360 C   0  0  2  0  0  0  0  0  0  0  0  0
   60.6000  -14.8670    3.9640 C   0  0  0  0  0  0  0  0  0  0  0  0
   60.9090  -16.0610    3.9560 O   0  0  0  0  0  0  0  0  0  0  0  0
   61.6060  -13.2440    2.3250 C   0  0  0  0  0  0  0  0  0  0  0  0
   60.4190  -14.1600    5.0970 N   0  0  0  0  0  0  0  0  0  0  0  0
   60.5910  -14.7420    6.4300 C   0  0  2  0  0  0  0  0  0  0  0  0
   59.5480  -15.8100    6.7470 C   0  0  0  0  0  0  0  0  0  0  0  0
   59.8950  -16.8080    7.3760 O   0  0  0  0  0  0  0  0  0  0  0  0
   60.6400  -13.6600    7.5050 C   0  0  0  0  0  0  0  0  0  0  0  0
   58.2810  -15.6080    6.3080 N   0  0  0  0  0  0  0  0  0  0  0  0
   57.1990  -16.5650    6.5240 C   0  0  2  0  0  0  0  0  0  0  0  0
   57.4900  -17.8270    5.7090 C   0  0  0  0  0  0  0  0  0  0  0  0
   56.5840  -18.5550    5.3280 O   0  0  0  0  0  0  0  0  0  0  0  0
   55.8400  -15.9620    6.1260 C   0  0  0  0  0  0  0  0  0  0  0  0
  2  1  1  0
  3  2  1  0
  4  3  2  0
  2  5  1  1
  6  3  1  0
  7  6  1  0
  8  7  1  0
  9  8  2  0
  7 10  1  1
 11  8  1  0
 12 11  1  0
 13 12  1  0
 14 13  2  0
 12 15  1  6
 16 15  1  0
 17 16  1  0
 18 16  1  0
 19 13  1  0
 20 19  1  0
 21 20  1  0
 22 21  2  0
 20 23  1  6
 24 21  1  0
 25 24  1  0
 26 25  1  0
 27 26  2  0
 25 28  1  1
 29 26  1  0
 30 29  1  0
 31 30  1  0
 32 31  2  0
 30 33  1  1
 34 31  1  0
 35 34  1  0
 36 35  1  0
 37 36  2  0
 35 38  1  6
M  END
$$$$
7PWZ
     RDKit          3D

 76 77  0  0  0  0  0  0  0  0999 V2000
   17.0180    9.2040   31.3840 N   0  0  0  0  0  0  0  0  0  0  0  0
   16.7120   10.2680   30.4340 C   0  0  2  0  0  0  0  0  0  0  0  0
   17.3560    9.9290   29.0970 C   0  0  0  0  0  0  0  0  0  0  0  0
   18.3640    9.2190   29.0520 O   0  0  0  0  0  0  0  0  0  0  0  0
   17.1980   11.6240   30.9490 C   0  0  0  0  0  0  0  0  0  0  0  0
   16.4140   12.1420   32.1320 C   0  0  0  0  0  0  0  0  0  0  0  0
   15.6140   11.2930   32.8820 C   0  0  0  0  0  0  0  0  0  0  0  0
   16.4770   13.4780   32.4920 C   0  0  0  0  0  0  0  0  0  0  0  0
   14.8970   11.7630   33.9690 C   0  0  0  0  0  0  0  0  0  0  0  0
   15.7590   13.9540   33.5810 C   0  0  0  0  0  0  0  0  0  0  0  0
   14.9690   13.0950   34.3170 C   0  0  0  0  0  0  0  0  0  0  0  0
   15.7530   10.3520   30.3150 H   0  0  0  0  0  0  0  0  0  0  0  0
   18.1250   11.5400   31.2220 H   0  0  0  0  0  0  0  0  0  0  0  0
   17.1200   12.2750   30.2340 H   0  0  0  0  0  0  0  0  0  0  0  0
   15.5570   10.3940   32.6500 H   0  0  0  0  0  0  0  0  0  0  0  0
   17.0070   14.0620   31.9990 H   0  0  0  0  0  0  0  0  0  0  0  0
   14.3670   11.1810   34.4640 H   0  0  0  0  0  0  0  0  0  0  0  0
   15.8110   14.8530   33.8140 H   0  0  0  0  0  0  0  0  0  0  0  0
   14.4870   13.4140   35.0460 H   0  0  0  0  0  0  0  0  0  0  0  0
   16.7820   10.4350   28.0080 N   0  0  0  0  0  0  0  0  0  0  0  0
   17.2630   10.0390   26.6820 C   0  0  2  0  0  0  0  0  0  0  0  0
   18.6380   10.6110   26.4020 C   0  0  0  0  0  0  0  0  0  0  0  0
   19.0220   11.6570   26.9280 O   0  0  0  0  0  0  0  0  0  0  0  0
   16.2080   10.6180   25.7350 C   0  0  0  0  0  0  0  0  0  0  0  0
   15.7160   11.8390   26.4410 C   0  0  0  0  0  0  0  0  0  0  0  0
   15.8470   11.5750   27.9370 C   0  0  0  0  0  0  0  0  0  0  0  0
   17.2850    9.0730   26.5910 H   0  0  0  0  0  0  0  0  0  0  0  0
   16.6130   10.8450   24.8840 H   0  0  0  0  0  0  0  0  0  0  0  0
   15.4920    9.9780   25.6010 H   0  0  0  0  0  0  0  0  0  0  0  0
   16.2570   12.6010   26.1830 H   0  0  0  0  0  0  0  0  0  0  0  0
   14.7880   11.9960   26.2050 H   0  0  0  0  0  0  0  0  0  0  0  0
   16.2130   12.3500   28.3920 H   0  0  0  0  0  0  0  0  0  0  0  0
   14.9880   11.3400   28.3210 H   0  0  0  0  0  0  0  0  0  0  0  0
   19.3790    9.9130   25.5540 N   0  0  0  0  0  0  0  0  0  0  0  0
   20.7400   10.3240   25.2460 C   0  0  2  0  0  0  0  0  0  0  0  0
   20.7940   11.4010   24.1510 C   0  0  0  0  0  0  0  0  0  0  0  0
   20.0870   11.3330   23.1470 O   0  0  0  0  0  0  0  0  0  0  0  0
   21.5700    9.1050   24.8450 C   0  0  0  0  0  0  0  0  0  0  0  0
   19.1190    9.2020   25.1460 H   0  0  0  0  0  0  0  0  0  0  0  0
   21.1280   10.7180   26.0420 H   0  0  0  0  0  0  0  0  0  0  0  0
   21.5800    8.4740   25.5810 H   0  0  0  0  0  0  0  0  0  0  0  0
   21.1700    8.6950   24.0620 H   0  0  0  0  0  0  0  0  0  0  0  0
   22.4740    9.3920   24.6420 H   0  0  0  0  0  0  0  0  0  0  0  0
   21.6360   12.4040   24.3900 N   0  0  0  0  0  0  0  0  0  0  0  0
   21.9240   13.5090   23.4710 C   0  0  1  0  0  0  0  0  0  0  0  0
   21.3400   14.8080   23.9880 C   0  0  1  0  0  0  0  0  0  0  0  0
   19.8190   14.6940   23.9000 C   0  0  2  0  0  0  0  0  0  0  0  0
   21.7880   14.9400   25.3310 O   0  0  0  0  0  0  0  0  0  0  0  0
   21.5970   16.4590   25.8270 P   0  0  0  0  0  0  0  0  0  0  0  0
   21.7060   17.5160   24.6200 O   0  0  0  0  0  0  0  0  0  0  0  0
   22.7480   16.7770   26.9050 O   0  0  0  0  0  0  0  0  0  0  0  0
   20.2630   16.6160   26.4440 O   0  0  0  0  0  0  0  0  0  0  0  0
   23.4500   13.5530   23.3900 C   0  0  0  0  0  0  0  0  0  0  0  0
   24.1200   12.9680   24.2440 O   0  0  0  0  0  0  0  0  0  0  0  0
   21.5200   13.3960   22.5860 H   0  0  0  0  0  0  0  0  0  0  0  0
   21.6500   15.6830   23.4180 H   0  0  0  0  0  0  0  0  0  0  0  0
   19.4730   13.9140   24.5790 H   0  0  0  0  0  0  0  0  0  0  0  0
   19.5310   14.4400   22.8800 H   0  0  0  0  0  0  0  0  0  0  0  0
   19.3660   15.6450   24.1800 H   0  0  0  0  0  0  0  0  0  0  0  0
   24.0100   14.2070   22.3750 N   0  0  0  0  0  0  0  0  0  0  0  0
   25.4610   14.3990   22.3220 C   0  0  2  0  0  0  0  0  0  0  0  0
   25.7780   15.8350   21.9310 C   0  0  0  0  0  0  0  0  0  0  0  0
   24.8710   16.6360   21.7150 O   0  0  0  0  0  0  0  0  0  0  0  0
   26.1520   13.4170   21.3520 C   0  0  0  0  0  0  0  0  0  0  0  0
   25.9770   11.9920   21.8380 C   0  0  0  0  0  0  0  0  0  0  0  0
   25.6320   13.5820   19.9330 C   0  0  0  0  0  0  0  0  0  0  0  0
   26.9430   16.2220   21.8230 O   0  0  0  0  0  0  0  0  0  0  0  0
   23.5790   14.5450   21.7130 H   0  0  0  0  0  0  0  0  0  0  0  0
   25.8170   14.2210   23.2070 H   0  0  0  0  0  0  0  0  0  0  0  0
   27.1000   13.6180   21.3310 H   0  0  0  0  0  0  0  0  0  0  0  0
   26.4280   11.3910   21.2240 H   0  0  0  0  0  0  0  0  0  0  0  0
   26.3640   11.9100   22.7240 H   0  0  0  0  0  0  0  0  0  0  0  0
   25.0310   11.7820   21.8700 H   0  0  0  0  0  0  0  0  0  0  0  0
   26.0110   12.8850   19.3750 H   0  0  0  0  0  0  0  0  0  0  0  0
   24.6640   13.5090   19.9410 H   0  0  0  0  0  0  0  0  0  0  0  0
   25.8950   14.4540   19.5990 H   0  0  0  0  0  0  0  0  0  0  0  0
  2  1  1  0
  3  2  1  0
  4  3  2  0
  5  2  1  0
  6  5  1  0
  7  6  2  0
  8  6  1  0
  9  7  1  0
 10  8  2  0
 11 10  1  0
 11  9  2  0
  2 12  1  6
 13  5  1  0
 14  5  1  0
 15  7  1  0
 16  8  1  0
 17  9  1  0
 18 10  1  0
 19 11  1  0
 20  3  1  0
 21 20  1  0
 22 21  1  0
 23 22  2  0
 24 21  1  0
 25 24  1  0
 26 25  1  0
 26 20  1  0
 21 27  1  1
 28 24  1  0
 29 24  1  0
 30 25  1  0
 31 25  1  0
 32 26  1  0
 33 26  1  0
 34 22  1  0
 35 34  1  0
 36 35  1  0
 37 36  2  0
 38 35  1  0
 39 34  1  0
 35 40  1  1
 41 38  1  0
 42 38  1  0
 43 38  1  0
 44 36  1  0
 45 44  1  0
 46 45  1  0
 47 46  1  0
 48 46  1  0
 49 48  1  0
 50 49  1  0
 51 49  1  0
 52 49  1  0
 53 45  1  0
 54 53  1  0
 45 55  1  6
 46 56  1  6
 47 57  1  1
 58 47  1  0
 59 47  1  0
 60 53  1  0
 61 60  1  0
 62 61  1  0
 63 62  2  0
 64 61  1  0
 65 64  1  0
 66 64  1  0
 67 62  1  0
 68 60  1  0
 61 69  1  1
 70 64  1  0
 71 65  1  0
 72 65  1  0
 73 65  1  0
 74 66  1  0
 75 66  1  0
 76 66  1  0
M  END
$$$$
5TN8
     RDKit          3D

 72 72  0  0  0  0  0  0  0  0999 V2000
   29.9610   16.4260    6.3470 N   0  0  0  0  0  0  0  0  0  0  0  0
   28.5200   16.3230    6.1540 C   0  0  2  0  0  0  0  0  0  0  0  0
   28.1740   16.1180    4.6820 C   0  0  0  0  0  0  0  0  0  0  0  0
   27.9040   17.0780    3.9600 O   0  0  0  0  0  0  0  0  0  0  0  0
   27.8190   17.5720    6.6910 C   0  0  0  0  0  0  0  0  0  0  0  0
   28.1850   14.8570    4.2420 N   0  0  0  0  0  0  0  0  0  0  0  0
   27.8660   14.5490    2.8500 C   0  0  2  0  0  0  0  0  0  0  0  0
   26.4160   14.8900    2.5410 C   0  0  0  0  0  0  0  0  0  0  0  0
   26.0930   15.3180    1.4240 O   0  0  0  0  0  0  0  0  0  0  0  0
   28.1700   13.0680    2.5500 C   0  0  2  0  0  0  0  0  0  0  0  0
   29.6130   12.7310    2.9270 C   0  0  0  0  0  0  0  0  0  0  0  0
   27.9190   12.7520    1.0820 C   0  0  0  0  0  0  0  0  0  0  0  0
   30.0040   11.3110    2.6020 C   0  0  0  0  0  0  0  0  0  0  0  0
   25.5210   14.7120    3.5170 N   0  0  0  0  0  0  0  0  0  0  0  0
   24.1110   15.0210    3.3030 C   0  0  2  0  0  0  0  0  0  0  0  0
   23.9020   16.4920    2.9660 C   0  0  0  0  0  0  0  0  0  0  0  0
   23.0130   16.8260    2.1730 O   0  0  0  0  0  0  0  0  0  0  0  0
   23.3030   14.6290    4.5410 C   0  0  0  0  0  0  0  0  0  0  0  0
   21.8030   14.9230    4.5420 C   0  0  0  0  0  0  0  0  0  0  0  0
   21.1430   14.3580    3.2990 C   0  0  0  0  0  0  0  0  0  0  0  0
   21.1500   14.3600    5.7960 C   0  0  0  0  0  0  0  0  0  0  0  0
   24.7100   17.3820    3.5470 N   0  0  0  0  0  0  0  0  0  0  0  0
   24.6140   18.7990    3.2070 C   0  0  2  0  0  0  0  0  0  0  0  0
   24.9920   19.0440    1.7520 C   0  0  0  0  0  0  0  0  0  0  0  0
   24.4020   19.9030    1.0860 O   0  0  0  0  0  0  0  0  0  0  0  0
   25.5030   19.6240    4.1370 C   0  0  0  0  0  0  0  0  0  0  0  0
   24.9200   19.8410    5.4990 C   0  0  0  0  0  0  0  0  0  0  0  0
   24.4890   21.0760    5.9340 N   0  0  0  0  0  0  0  0  0  0  0  0
   24.6930   18.9820    6.5200 C   0  0  0  0  0  0  0  0  0  0  0  0
   24.0240   20.9680    7.1660 C   0  0  0  0  0  0  0  0  0  0  0  0
   24.1370   19.7080    7.5450 N   0  0  0  0  0  0  0  0  0  0  0  0
   25.9720   18.2960    1.2400 N   0  0  0  0  0  0  0  0  0  0  0  0
   26.4160   18.4920   -0.1370 C   0  0  2  0  0  0  0  0  0  0  0  0
   25.3670   18.0120   -1.1330 C   0  0  0  0  0  0  0  0  0  0  0  0
   25.1420   18.6540   -2.1660 O   0  0  0  0  0  0  0  0  0  0  0  0
   27.7420   17.7670   -0.3620 C   0  0  0  0  0  0  0  0  0  0  0  0
   28.3570   17.9800   -1.7340 C   0  0  0  0  0  0  0  0  0  0  0  0
   29.5120   17.0180   -1.9560 C   0  0  0  0  0  0  0  0  0  0  0  0
   29.0460   15.6400   -2.0940 N   0  0  0  0  0  0  0  0  0  0  0  0
   29.8200   14.5690   -1.9450 C   0  0  0  0  0  0  0  0  0  0  0  0
   31.1020   14.7120   -1.6390 N   0  0  0  0  0  0  0  0  0  0  0  0
   29.3090   13.3540   -2.0940 N   0  0  0  0  0  0  0  0  0  0  0  0
   24.7150   16.8850   -0.8410 N   0  0  0  0  0  0  0  0  0  0  0  0
   23.7240   16.3260   -1.7500 C   0  0  2  0  0  0  0  0  0  0  0  0
   22.4040   17.0840   -1.7280 C   0  0  0  0  0  0  0  0  0  0  0  0
   21.6640   17.0330   -2.7160 O   0  0  0  0  0  0  0  0  0  0  0  0
   23.4770   14.8540   -1.4130 C   0  0  0  0  0  0  0  0  0  0  0  0
   24.5780   13.8820   -1.8370 C   0  0  0  0  0  0  0  0  0  0  0  0
   24.3960   12.5310   -1.1700 C   0  0  0  0  0  0  0  0  0  0  0  0
   24.5820   13.7340   -3.3480 C   0  0  0  0  0  0  0  0  0  0  0  0
   22.0920   17.7830   -0.6330 N   0  0  0  0  0  0  0  0  0  0  0  0
   20.8180   18.4900   -0.5470 C   0  0  2  0  0  0  0  0  0  0  0  0
   20.7930   19.7310   -1.4290 C   0  0  0  0  0  0  0  0  0  0  0  0
   19.7130   20.1790   -1.8320 O   0  0  0  0  0  0  0  0  0  0  0  0
   20.5220   18.8650    0.9040 C   0  0  0  0  0  0  0  0  0  0  0  0
   19.8800   17.7740    1.7610 C   0  0  0  0  0  0  0  0  0  0  0  0
   19.8110   18.2120    3.2090 C   0  0  0  0  0  0  0  0  0  0  0  0
   18.4930   17.4430    1.2380 C   0  0  0  0  0  0  0  0  0  0  0  0
   21.9570   20.3040   -1.7320 N   0  0  0  0  0  0  0  0  0  0  0  0
   22.0520   21.4640   -2.6090 C   0  0  2  0  0  0  0  0  0  0  0  0
   22.7400   21.1310   -3.9290 C   0  0  0  0  0  0  0  0  0  0  0  0
   23.2830   22.0270   -4.5850 O   0  0  0  0  0  0  0  0  0  0  0  0
   22.7710   22.6100   -1.8960 C   0  0  0  0  0  0  0  0  0  0  0  0
   24.0070   22.1860   -1.1230 C   0  0  0  0  0  0  0  0  0  0  0  0
   24.4000   23.1910   -0.0570 C   0  0  0  0  0  0  0  0  0  0  0  0
   24.1940   24.3950   -0.2140 O   0  0  0  0  0  0  0  0  0  0  0  0
   24.9580   22.6990    1.0430 N   0  0  0  0  0  0  0  0  0  0  0  0
   22.7220   19.8590   -4.3250 N   0  0  0  0  0  0  0  0  0  0  0  0
   23.2840   19.4010   -5.5950 C   0  0  2  0  0  0  0  0  0  0  0  0
   24.7510   19.7890   -5.7500 C   0  0  0  0  0  0  0  0  0  0  0  0
   25.5450   19.0340   -6.3100 O   0  0  0  0  0  0  0  0  0  0  0  0
   22.4680   19.9520   -6.7690 C   0  0  0  0  0  0  0  0  0  0  0  0
  2  1  1  0
  3  2  1  0
  4  3  2  0
  2  5  1  6
  6  3  1  0
  7  6  1  1
  8  7  1  0
  9  8  2  0
 10  7  1  0
 11 10  1  0
 10 12  1  6
 13 11  1  0
 14  8  1  0
 15 14  1  0
 16 15  1  0
 17 16  2  0
 15 18  1  1
 19 18  1  0
 20 19  1  0
 21 19  1  0
 22 16  1  0
 23 22  1  0
 24 23  1  0
 25 24  2  0
 23 26  1  1
 27 26  1  0
 28 27  1  0
 29 27  2  0
 30 28  2  0
 31 30  1  0
 31 29  1  0
 32 24  1  0
 33 32  1  0
 34 33  1  0
 35 34  2  0
 33 36  1  1
 37 36  1  0
 38 37  1  0
 39 38  1  0
 40 39  1  0
 41 40  1  0
 42 40  2  0
 43 34  1  0
 44 43  1  0
 45 44  1  0
 46 45  2  0
 44 47  1  1
 48 47  1  0
 49 48  1  0
 50 48  1  0
 51 45  1  0
 52 51  1  0
 53 52  1  0
 54 53  2  0
 52 55  1  1
 56 55  1  0
 57 56  1  0
 58 56  1  0
 59 53  1  0
 60 59  1  0
 61 60  1  0
 62 61  2  0
 60 63  1  1
 64 63  1  0
 65 64  1  0
 66 65  2  0
 67 65  1  0
 68 61  1  0
 69 68  1  0
 70 69  1  0
 71 70  2  0
 69 72  1  6
M  END
$$$$
5TLD
     RDKit          3D

 79 79  0  0  0  0  0  0  0  0999 V2000
    7.0230  -16.6200   34.5590 N   0  0  0  0  0  0  0  0  0  0  0  0
    6.9480  -15.2540   34.0520 C   0  0  2  0  0  0  0  0  0  0  0  0
    5.9990  -14.4200   34.9060 C   0  0  0  0  0  0  0  0  0  0  0  0
    4.8090  -14.7210   35.0060 O   0  0  0  0  0  0  0  0  0  0  0  0
    6.5040  -15.2520   32.5870 C   0  0  0  0  0  0  0  0  0  0  0  0
    6.3500  -13.8700   31.9830 C   0  0  0  0  0  0  0  0  0  0  0  0
    6.2630  -13.9320   30.4650 C   0  0  0  0  0  0  0  0  0  0  0  0
    7.6120  -14.2680   29.8480 C   0  0  0  0  0  0  0  0  0  0  0  0
    7.5730  -14.1730   28.3620 N   0  0  0  0  0  0  0  0  0  0  0  0
    6.5450  -13.3690   35.5230 N   0  0  0  0  0  0  0  0  0  0  0  0
    5.7630  -12.5460   36.4440 C   0  0  2  0  0  0  0  0  0  0  0  0
    4.5690  -11.9310   35.7280 C   0  0  0  0  0  0  0  0  0  0  0  0
    3.4430  -11.9410   36.2410 O   0  0  0  0  0  0  0  0  0  0  0  0
    6.6540  -11.4660   37.0820 C   0  0  2  0  0  0  0  0  0  0  0  0
    7.8510  -12.1130   37.7760 C   0  0  0  0  0  0  0  0  0  0  0  0
    5.8550  -10.6300   38.0690 C   0  0  0  0  0  0  0  0  0  0  0  0
    8.8690  -11.1260   38.2780 C   0  0  0  0  0  0  0  0  0  0  0  0
    4.7950  -11.3890   34.5290 N   0  0  0  0  0  0  0  0  0  0  0  0
    3.7030  -10.7920   33.7680 C   0  0  2  0  0  0  0  0  0  0  0  0
    2.6180  -11.8230   33.4710 C   0  0  0  0  0  0  0  0  0  0  0  0
    1.4230  -11.5380   33.5940 O   0  0  0  0  0  0  0  0  0  0  0  0
    4.2410  -10.1890   32.4710 C   0  0  0  0  0  0  0  0  0  0  0  0
    3.1910   -9.7030   31.4690 C   0  0  0  0  0  0  0  0  0  0  0  0
    2.3240   -8.6080   32.0720 C   0  0  0  0  0  0  0  0  0  0  0  0
    3.8570   -9.2240   30.1950 C   0  0  0  0  0  0  0  0  0  0  0  0
    3.0240  -13.0360   33.0840 N   0  0  0  0  0  0  0  0  0  0  0  0
    2.0730  -14.1230   32.8630 C   0  0  2  0  0  0  0  0  0  0  0  0
    1.2290  -14.3780   34.1040 C   0  0  0  0  0  0  0  0  0  0  0  0
    0.0290  -14.6550   34.0010 O   0  0  0  0  0  0  0  0  0  0  0  0
    2.8310  -15.3880   32.4460 C   0  0  0  0  0  0  0  0  0  0  0  0
    2.0040  -16.6360   32.4840 C   0  0  0  0  0  0  0  0  0  0  0  0
    0.7320  -16.7050   31.9560 N   0  0  0  0  0  0  0  0  0  0  0  0
    2.2710  -17.8680   32.9750 C   0  0  0  0  0  0  0  0  0  0  0  0
    0.2490  -17.9230   32.1190 C   0  0  0  0  0  0  0  0  0  0  0  0
    1.1640  -18.6480   32.7370 N   0  0  0  0  0  0  0  0  0  0  0  0
    1.8370  -14.2800   35.2880 N   0  0  0  0  0  0  0  0  0  0  0  0
    1.1090  -14.5520   36.5240 C   0  0  2  0  0  0  0  0  0  0  0  0
    0.1600  -13.4130   36.8740 C   0  0  0  0  0  0  0  0  0  0  0  0
   -1.0200  -13.6430   37.1640 O   0  0  0  0  0  0  0  0  0  0  0  0
    2.0880  -14.7900   37.6720 C   0  0  0  0  0  0  0  0  0  0  0  0
    2.4850  -16.2400   37.9130 C   0  0  0  0  0  0  0  0  0  0  0  0
    2.9620  -16.4430   39.3550 C   0  0  0  0  0  0  0  0  0  0  0  0
    3.9600  -15.4530   39.7600 N   0  0  0  0  0  0  0  0  0  0  0  0
    3.6990  -14.3770   40.5000 C   0  0  0  0  0  0  0  0  0  0  0  0
    4.6730  -13.5330   40.8130 N   0  0  0  0  0  0  0  0  0  0  0  0
    2.4630  -14.1430   40.9210 N   0  0  0  0  0  0  0  0  0  0  0  0
    0.6670  -12.1770   36.8700 N   0  0  0  0  0  0  0  0  0  0  0  0
   -0.1510  -11.0330   37.2620 C   0  0  2  0  0  0  0  0  0  0  0  0
   -1.3780  -10.8850   36.3720 C   0  0  0  0  0  0  0  0  0  0  0  0
   -2.4180  -10.3930   36.8250 O   0  0  0  0  0  0  0  0  0  0  0  0
    0.6830   -9.7510   37.2330 C   0  0  0  0  0  0  0  0  0  0  0  0
    1.9400   -9.7310   38.1050 C   0  0  0  0  0  0  0  0  0  0  0  0
    2.5790   -8.3470   38.1200 C   0  0  0  0  0  0  0  0  0  0  0  0
    1.6270  -10.1950   39.5180 C   0  0  0  0  0  0  0  0  0  0  0  0
   -1.2780  -11.3070   35.1100 N   0  0  0  0  0  0  0  0  0  0  0  0
   -2.4410  -11.3130   34.2320 C   0  0  2  0  0  0  0  0  0  0  0  0
   -3.4630  -12.3690   34.6300 C   0  0  0  0  0  0  0  0  0  0  0  0
   -4.6130  -12.2970   34.1860 O   0  0  0  0  0  0  0  0  0  0  0  0
   -2.0060  -11.5350   32.7830 C   0  0  0  0  0  0  0  0  0  0  0  0
   -1.4750  -10.3090   32.0410 C   0  0  0  0  0  0  0  0  0  0  0  0
   -0.6170  -10.7310   30.8630 C   0  0  0  0  0  0  0  0  0  0  0  0
   -2.6280   -9.4370   31.5740 C   0  0  0  0  0  0  0  0  0  0  0  0
   -3.0740  -13.3460   35.4510 N   0  0  0  0  0  0  0  0  0  0  0  0
   -4.0130  -14.3870   35.8530 C   0  0  2  0  0  0  0  0  0  0  0  0
   -4.8730  -13.9490   37.0320 C   0  0  0  0  0  0  0  0  0  0  0  0
   -6.0750  -14.2370   37.0680 O   0  0  0  0  0  0  0  0  0  0  0  0
   -3.2640  -15.6720   36.2040 C   0  0  0  0  0  0  0  0  0  0  0  0
   -2.6160  -16.3680   35.0230 C   0  0  0  0  0  0  0  0  0  0  0  0
   -1.8830  -17.6270   35.4330 C   0  0  0  0  0  0  0  0  0  0  0  0
   -1.3270  -17.7050   36.5270 O   0  0  0  0  0  0  0  0  0  0  0  0
   -1.8860  -18.6260   34.5580 N   0  0  0  0  0  0  0  0  0  0  0  0
   -4.2790  -13.2610   38.0010 N   0  0  0  0  0  0  0  0  0  0  0  0
   -4.9880  -12.8640   39.2110 C   0  0  2  0  0  0  0  0  0  0  0  0
   -6.0160  -11.7740   38.9280 C   0  0  0  0  0  0  0  0  0  0  0  0
   -5.8980  -10.6550   39.4270 O   0  0  0  0  0  0  0  0  0  0  0  0
   -3.9970  -12.3860   40.2730 C   0  0  0  0  0  0  0  0  0  0  0  0
   -2.7950  -13.3030   40.4000 C   0  0  0  0  0  0  0  0  0  0  0  0
   -1.6820  -12.7960   40.6590 O   0  0  0  0  0  0  0  0  0  0  0  0
   -2.9600  -14.5290   40.2310 O   0  0  0  0  0  0  0  0  0  0  0  0
  2  1  1  1
  3  2  1  0
  4  3  2  0
  5  2  1  0
  6  5  1  0
  7  6  1  0
  8  7  1  0
  9  8  1  0
 10  3  1  0
 11 10  1  6
 12 11  1  0
 13 12  2  0
 14 11  1  0
 15 14  1  0
 14 16  1  1
 17 15  1  0
 18 12  1  0
 19 18  1  0
 20 19  1  0
 21 20  2  0
 19 22  1  6
 23 22  1  0
 24 23  1  0
 25 23  1  0
 26 20  1  0
 27 26  1  0
 28 27  1  0
 29 28  2  0
 27 30  1  1
 31 30  1  0
 32 31  1  0
 33 31  2  0
 34 32  2  0
 35 34  1  0
 35 33  1  0
 36 28  1  0
 37 36  1  0
 38 37  1  0
 39 38  2  0
 37 40  1  1
 41 40  1  0
 42 41  1  0
 43 42  1  0
 44 43  1  0
 45 44  1  0
 46 44  2  0
 47 38  1  0
 48 47  1  0
 49 48  1  0
 50 49  2  0
 48 51  1  6
 52 51  1  0
 53 52  1  0
 54 52  1  0
 55 49  1  0
 56 55  1  0
 57 56  1  0
 58 57  2  0
 56 59  1  6
 60 59  1  0
 61 60  1  0
 62 60  1  0
 63 57  1  0
 64 63  1  0
 65 64  1  0
 66 65  2  0
 64 67  1  1
 68 67  1  0
 69 68  1  0
 70 69  2  0
 71 69  1  0
 72 65  1  0
 73 72  1  0
 74 73  1  0
 75 74  2  0
 73 76  1  1
 77 76  1  0
 78 77  2  0
 79 77  1  0
M  END
$$$$
5FQP
     RDKit          3D

 27 29  0  0  0  0  0  0  0  0999 V2000
   13.2740   23.6510   61.9190 C   0  0  0  0  0  0  0  0  0  0  0  0
   12.7900   23.8510   63.3500 C   0  0  2  0  0  0  0  0  0  0  0  0
   13.3520   25.1140   63.9830 C   0  0  0  0  0  0  0  0  0  0  0  0
   14.8110   24.9940   64.3280 C   0  0  0  0  0  0  0  0  0  0  0  0
   15.5490   26.1510   64.4580 C   0  0  0  0  0  0  0  0  0  0  0  0
   16.8860   26.0710   64.7810 C   0  0  0  0  0  0  0  0  0  0  0  0
   17.5100   24.8600   64.9720 C   0  0  0  0  0  0  0  0  0  0  0  0
   16.7680   23.7040   64.8370 C   0  0  0  0  0  0  0  0  0  0  0  0
   15.4200   23.7680   64.5190 C   0  0  0  0  0  0  0  0  0  0  0  0
   14.6510   22.4870   64.4000 C   0  0  2  0  0  0  0  0  0  0  0  0
   13.1750   22.6830   64.2090 N   0  0  0  0  0  0  0  0  0  0  0  0
   12.4950   21.4070   63.8360 C   0  0  0  0  0  0  0  0  0  0  0  0
   11.1150   21.2980   64.4580 C   0  0  1  0  0  0  0  0  0  0  0  0
   10.5370   19.9420   64.1120 C   0  0  0  0  0  0  0  0  0  0  0  0
   11.1530   21.4480   65.9600 C   0  0  0  0  0  0  0  0  0  0  0  0
   14.8600   21.6550   65.6330 C   0  0  0  0  0  0  0  0  0  0  0  0
   14.6220   22.1900   66.8860 C   0  0  0  0  0  0  0  0  0  0  0  0
   14.8120   21.4180   68.0150 C   0  0  0  0  0  0  0  0  0  0  0  0
   15.2370   20.1090   67.8960 C   0  0  0  0  0  0  0  0  0  0  0  0
   15.4740   19.5750   66.6460 C   0  0  0  0  0  0  0  0  0  0  0  0
   15.2850   20.3500   65.5180 C   0  0  0  0  0  0  0  0  0  0  0  0
   15.4500   19.2650   69.0670 C   0  0  0  0  0  0  0  0  0  0  0  0
   15.9010   19.8040   70.2030 C   0  0  0  0  0  0  0  0  0  0  0  0
   16.0680   18.7850   71.3150 C   0  0  0  0  0  0  0  0  0  0  0  0
   15.8560   17.5780   71.0120 O   0  0  0  0  0  0  0  0  0  0  0  0
   16.4040   19.2710   72.4300 O   0  0  0  0  0  0  0  0  0  0  0  0
   17.6110   27.2290   64.9200 O   0  0  0  0  0  0  0  0  0  0  0  0
  2  1  1  6
  3  2  1  0
  4  3  1  0
  5  4  1  0
  6  5  1  0
  7  6  1  0
  8  7  1  0
  9  4  1  0
  9  8  1  0
 10  9  1  0
 11 10  1  0
 11  2  1  0
 12 11  1  0
 13 12  1  0
 13 14  1  1
 15 13  1  0
 10 16  1  1
 17 16  1  0
 18 17  1  0
 19 18  1  0
 20 19  1  0
 21 20  1  0
 21 16  1  0
 22 19  1  0
 23 22  1  0
 24 23  1  0
 25 24  1  0
 26 24  1  0
 27  6  1  0
M  END
$$$$
2QR9
     RDKit          3D

 29 32  0  0  0  0  0  0  0  0999 V2000
    2.7320    0.3330   -7.1590 C   0  0  0  0  0  0  0  0  0  0  0  0
    2.3260   -0.6330   -8.0470 C   0  0  0  0  0  0  0  0  0  0  0  0
    1.2980   -0.3500   -8.9260 C   0  0  0  0  0  0  0  0  0  0  0  0
    0.9090   -1.2990   -9.8110 O   0  0  0  0  0  0  0  0  0  0  0  0
    0.6760    0.8890   -8.9010 C   0  0  0  0  0  0  0  0  0  0  0  0
    1.0660    1.8660   -8.0100 C   0  0  0  0  0  0  0  0  0  0  0  0
    2.1070    1.5710   -7.1570 C   0  0  1  0  0  0  0  0  0  0  0  0
    2.5010    2.4800   -6.2160 C   0  0  1  0  0  0  0  0  0  0  0  0
    1.6560    2.8230   -4.9880 C   0  0  1  0  0  0  0  0  0  0  0  0
    2.7920    2.8770   -4.0880 O   0  0  0  0  0  0  0  0  0  0  0  0
    1.2350    4.2600   -4.8340 C   0  0  1  0  0  0  0  0  0  0  0  0
   -0.2390    4.7210   -4.7530 C   0  0  1  0  0  0  0  0  0  0  0  0
   -0.5600    6.1210   -5.1240 O   0  0  0  0  0  0  0  0  0  0  0  0
   -1.9480    6.3190   -4.8690 C   0  0  0  0  0  0  0  0  0  0  0  0
   -1.0200    3.6540   -5.3900 O   0  0  0  0  0  0  0  0  0  0  0  0
    2.4390    4.9570   -4.7180 C   0  0  1  0  0  0  0  0  0  0  0  0
    2.6420    6.4510   -4.5030 C   0  0  1  0  0  0  0  0  0  0  0  0
    3.9920    6.8570   -4.9160 O   0  0  0  0  0  0  0  0  0  0  0  0
    5.0500    5.8570   -4.9960 C   0  0  0  0  0  0  0  0  0  0  0  0
    1.6180    7.2120   -5.2100 O   0  0  0  0  0  0  0  0  0  0  0  0
    3.5470    3.9090   -4.7850 C   0  0  2  0  0  0  0  0  0  0  0  0
    3.6910    3.1730   -6.0990 C   0  0  1  0  0  0  0  0  0  0  0  0
    4.8330    3.0430   -6.8610 C   0  0  2  0  0  0  0  0  0  0  0  0
    4.8800    2.7620   -8.2320 C   0  0  0  0  0  0  0  0  0  0  0  0
    6.1260    2.5770   -8.8490 C   0  0  0  0  0  0  0  0  0  0  0  0
    7.2920    2.6270   -8.0790 C   0  0  0  0  0  0  0  0  0  0  0  0
    8.5280    2.4600   -8.6190 O   0  0  0  0  0  0  0  0  0  0  0  0
    7.2160    2.8780   -6.7150 C   0  0  0  0  0  0  0  0  0  0  0  0
    6.0010    3.0570   -6.1140 C   0  0  0  0  0  0  0  0  0  0  0  0
  2  1  1  0
  3  2  1  0
  4  3  1  0
  5  3  1  0
  6  5  1  0
  7  6  1  1
  7  1  1  0
  8  7  1  1
  9  8  1  0
  9 10  1  1
 11  9  1  0
 11 12  1  1
 13 12  1  0
 14 13  1  0
 12 15  1  6
 16 11  1  0
 16 17  1  1
 18 17  1  0
 19 18  1  0
 17 20  1  6
 21 16  1  0
 21 10  1  1
 22  8  1  0
 22 21  1  0
 22 23  1  1
 23 24  1  1
 25 24  1  0
 26 25  1  0
 27 26  1  0
 28 26  1  0
 29 23  1  0
 29 28  1  0
M  END
$$$$
5TMW
     RDKit          3D

 79 79  0  0  0  0  0  0  0  0999 V2000
   27.0150   18.5110    6.5610 N   0  0  0  0  0  0  0  0  0  0  0  0
   25.7810   17.7310    6.5420 C   0  0  2  0  0  0  0  0  0  0  0  0
   25.4720   17.2090    5.1440 C   0  0  0  0  0  0  0  0  0  0  0  0
   24.9210   17.9270    4.3090 O   0  0  0  0  0  0  0  0  0  0  0  0
   24.6110   18.5700    7.0590 C   0  0  0  0  0  0  0  0  0  0  0  0
   24.3690   18.4330    8.5520 C   0  0  0  0  0  0  0  0  0  0  0  0
   24.0990   16.9820    8.9220 C   0  0  0  0  0  0  0  0  0  0  0  0
   23.7600   16.8300   10.3990 C   0  0  0  0  0  0  0  0  0  0  0  0
   22.4950   17.5300   10.7600 N   0  0  0  0  0  0  0  0  0  0  0  0
   25.8260   15.9460    4.8990 N   0  0  0  0  0  0  0  0  0  0  0  0
   25.6020   15.3500    3.5860 C   0  0  2  0  0  0  0  0  0  0  0  0
   24.1120   15.2310    3.2970 C   0  0  0  0  0  0  0  0  0  0  0  0
   23.6680   15.4490    2.1640 O   0  0  0  0  0  0  0  0  0  0  0  0
   26.3100   13.9880    3.5000 C   0  0  2  0  0  0  0  0  0  0  0  0
   27.8200   14.1840    3.5930 C   0  0  0  0  0  0  0  0  0  0  0  0
   25.9420   13.2640    2.2120 C   0  0  0  0  0  0  0  0  0  0  0  0
   28.4780   13.2350    4.5330 C   0  0  0  0  0  0  0  0  0  0  0  0
   23.3160   14.8950    4.3140 N   0  0  0  0  0  0  0  0  0  0  0  0
   21.8780   14.7550    4.1220 C   0  0  2  0  0  0  0  0  0  0  0  0
   21.2260   16.0540    3.6590 C   0  0  0  0  0  0  0  0  0  0  0  0
   20.1540   16.0120    3.0470 O   0  0  0  0  0  0  0  0  0  0  0  0
   21.2310   14.2640    5.4190 C   0  0  0  0  0  0  0  0  0  0  0  0
   19.7510   13.8870    5.3600 C   0  0  0  0  0  0  0  0  0  0  0  0
   19.5170   12.8580    4.2680 C   0  0  0  0  0  0  0  0  0  0  0  0
   19.2670   13.3690    6.7060 C   0  0  0  0  0  0  0  0  0  0  0  0
   21.8540   17.2020    3.9220 N   0  0  0  0  0  0  0  0  0  0  0  0
   21.2890   18.4760    3.4860 C   0  0  2  0  0  0  0  0  0  0  0  0
   21.3260   18.6120    1.9670 C   0  0  0  0  0  0  0  0  0  0  0  0
   20.3020   18.8930    1.3340 O   0  0  0  0  0  0  0  0  0  0  0  0
   22.0380   19.6350    4.1430 C   0  0  0  0  0  0  0  0  0  0  0  0
   21.4870   20.0320    5.4770 C   0  0  0  0  0  0  0  0  0  0  0  0
   21.1780   19.1150    6.4580 N   0  0  0  0  0  0  0  0  0  0  0  0
   21.1910   21.2490    5.9920 C   0  0  0  0  0  0  0  0  0  0  0  0
   20.7150   19.7500    7.5200 C   0  0  0  0  0  0  0  0  0  0  0  0
   20.7120   21.0450    7.2630 N   0  0  0  0  0  0  0  0  0  0  0  0
   22.5020   18.4210    1.3620 N   0  0  0  0  0  0  0  0  0  0  0  0
   22.6220   18.6400   -0.0750 C   0  0  2  0  0  0  0  0  0  0  0  0
   21.9470   17.5340   -0.8770 C   0  0  0  0  0  0  0  0  0  0  0  0
   21.5100   17.7730   -2.0080 O   0  0  0  0  0  0  0  0  0  0  0  0
   24.0930   18.7730   -0.4720 C   0  0  0  0  0  0  0  0  0  0  0  0
   24.9540   17.5650   -0.1440 C   0  0  0  0  0  0  0  0  0  0  0  0
   26.3960   17.7970   -0.5750 C   0  0  0  0  0  0  0  0  0  0  0  0
   27.2600   16.6700   -0.2360 N   0  0  0  0  0  0  0  0  0  0  0  0
   27.5080   15.6460   -1.0470 C   0  0  0  0  0  0  0  0  0  0  0  0
   26.9560   15.6020   -2.2520 N   0  0  0  0  0  0  0  0  0  0  0  0
   28.3090   14.6650   -0.6540 N   0  0  0  0  0  0  0  0  0  0  0  0
   21.8480   16.3270   -0.3190 N   0  0  0  0  0  0  0  0  0  0  0  0
   21.1540   15.2580   -1.0290 C   0  0  2  0  0  0  0  0  0  0  0  0
   19.6610   15.5400   -1.1400 C   0  0  0  0  0  0  0  0  0  0  0  0
   19.0170   15.0910   -2.0940 O   0  0  0  0  0  0  0  0  0  0  0  0
   21.3960   13.9170   -0.3380 C   0  0  0  0  0  0  0  0  0  0  0  0
   22.8570   13.4740   -0.2130 C   0  0  0  0  0  0  0  0  0  0  0  0
   22.9500   12.0390    0.2860 C   0  0  0  0  0  0  0  0  0  0  0  0
   23.5930   13.6410   -1.5350 C   0  0  0  0  0  0  0  0  0  0  0  0
   19.0980   16.2830   -0.1820 N   0  0  0  0  0  0  0  0  0  0  0  0
   17.6890   16.6540   -0.2500 C   0  0  2  0  0  0  0  0  0  0  0  0
   17.4370   17.7680   -1.2580 C   0  0  0  0  0  0  0  0  0  0  0  0
   16.3720   17.8000   -1.8840 O   0  0  0  0  0  0  0  0  0  0  0  0
   17.1870   17.0800    1.1310 C   0  0  0  0  0  0  0  0  0  0  0  0
   16.9390   15.9740    2.1600 C   0  0  0  0  0  0  0  0  0  0  0  0
   16.7050   16.5700    3.5360 C   0  0  0  0  0  0  0  0  0  0  0  0
   15.7550   15.1210    1.7470 C   0  0  0  0  0  0  0  0  0  0  0  0
   18.3890   18.6870   -1.4280 N   0  0  0  0  0  0  0  0  0  0  0  0
   18.2170   19.7690   -2.3890 C   0  0  2  0  0  0  0  0  0  0  0  0
   18.4390   19.3170   -3.8260 C   0  0  0  0  0  0  0  0  0  0  0  0
   18.0330   20.0240   -4.7540 O   0  0  0  0  0  0  0  0  0  0  0  0
   19.1660   20.9230   -2.0580 C   0  0  0  0  0  0  0  0  0  0  0  0
   19.0200   21.4670   -0.6410 C   0  0  0  0  0  0  0  0  0  0  0  0
   17.6710   22.1200   -0.3900 C   0  0  0  0  0  0  0  0  0  0  0  0
   16.9510   22.4730   -1.3250 O   0  0  0  0  0  0  0  0  0  0  0  0
   17.3240   22.2850    0.8810 N   0  0  0  0  0  0  0  0  0  0  0  0
   19.0660   18.1630   -4.0280 N   0  0  0  0  0  0  0  0  0  0  0  0
   19.3040   17.6410   -5.3680 C   0  0  2  0  0  0  0  0  0  0  0  0
   18.3800   16.4630   -5.6660 C   0  0  0  0  0  0  0  0  0  0  0  0
   18.3060   15.9890   -6.8000 O   0  0  0  0  0  0  0  0  0  0  0  0
   20.7660   17.2200   -5.5240 C   0  0  0  0  0  0  0  0  0  0  0  0
   21.7320   18.3550   -5.2460 C   0  0  0  0  0  0  0  0  0  0  0  0
   21.3980   19.5140   -5.5690 O   0  0  0  0  0  0  0  0  0  0  0  0
   22.8230   18.0890   -4.7000 O   0  0  0  0  0  0  0  0  0  0  0  0
  2  1  1  6
  3  2  1  0
  4  3  2  0
  5  2  1  0
  6  5  1  0
  7  6  1  0
  8  7  1  0
  9  8  1  0
 10  3  1  0
 11 10  1  1
 12 11  1  0
 13 12  2  0
 14 11  1  0
 15 14  1  0
 14 16  1  6
 17 15  1  0
 18 12  1  0
 19 18  1  0
 20 19  1  0
 21 20  2  0
 19 22  1  1
 23 22  1  0
 24 23  1  0
 25 23  1  0
 26 20  1  0
 27 26  1  0
 28 27  1  0
 29 28  2  0
 27 30  1  1
 31 30  1  0
 32 31  1  0
 33 31  2  0
 34 32  2  0
 35 34  1  0
 35 33  1  0
 36 28  1  0
 37 36  1  0
 38 37  1  0
 39 38  2  0
 37 40  1  6
 41 40  1  0
 42 41  1  0
 43 42  1  0
 44 43  1  0
 45 44  1  0
 46 44  2  0
 47 38  1  0
 48 47  1  0
 49 48  1  0
 50 49  2  0
 48 51  1  1
 52 51  1  0
 53 52  1  0
 54 52  1  0
 55 49  1  0
 56 55  1  0
 57 56  1  0
 58 57  2  0
 56 59  1  1
 60 59  1  0
 61 60  1  0
 62 60  1  0
 63 57  1  0
 64 63  1  0
 65 64  1  0
 66 65  2  0
 64 67  1  1
 68 67  1  0
 69 68  1  0
 70 69  2  0
 71 69  1  0
 72 65  1  0
 73 72  1  0
 74 73  1  0
 75 74  2  0
 73 76  1  1
 77 76  1  0
 78 77  2  0
 79 77  1  0
M  END
$$$$
5TM6
     RDKit          3D

 25 28  0  0  0  0  0  0  0  0999 V2000
   18.0740   -2.9410    4.4130 C   0  0  1  0  0  0  0  0  0  0  0  0
   17.1060   -3.9050    5.0940 C   0  0  2  0  0  0  0  0  0  0  0  0
   16.8100   -3.4010    6.5050 C   0  0  0  0  0  0  0  0  0  0  0  0
   18.2070   -3.5670    7.1510 C   0  0  2  0  0  0  0  0  0  0  0  0
   19.2620   -3.1780    5.0110 C   0  0  2  0  0  0  0  0  0  0  0  0
   18.9460   -4.2860    6.0090 C   0  0  2  0  0  0  0  0  0  0  0  0
   17.9250   -5.0120    5.3740 O   0  0  0  0  0  0  0  0  0  0  0  0
   17.7240   -2.3200    3.2710 C   0  0  0  0  0  0  0  0  0  0  0  0
   20.4410   -2.5200    5.0460 C   0  0  0  0  0  0  0  0  0  0  0  0
   16.4340   -1.9960    3.0610 C   0  0  0  0  0  0  0  0  0  0  0  0
   16.0340   -1.3830    1.9400 C   0  0  0  0  0  0  0  0  0  0  0  0
   16.9080   -1.0650    0.9740 C   0  0  0  0  0  0  0  0  0  0  0  0
   18.2000   -1.3830    1.1680 C   0  0  0  0  0  0  0  0  0  0  0  0
   18.5980   -1.9990    2.2950 C   0  0  0  0  0  0  0  0  0  0  0  0
   21.5960   -3.2080    5.0010 C   0  0  0  0  0  0  0  0  0  0  0  0
   22.7900   -2.6050    5.0390 C   0  0  0  0  0  0  0  0  0  0  0  0
   22.9270   -1.2730    5.1310 C   0  0  0  0  0  0  0  0  0  0  0  0
   21.7710   -0.5760    5.1820 C   0  0  0  0  0  0  0  0  0  0  0  0
   20.5720   -1.1810    5.1430 C   0  0  0  0  0  0  0  0  0  0  0  0
   16.4930   -0.4450   -0.1580 O   0  0  0  0  0  0  0  0  0  0  0  0
   24.1980   -0.7540    5.1630 O   0  0  0  0  0  0  0  0  0  0  0  0
   18.2420   -4.4760    8.6680 S   0  0  2  0  0  0  0  0  0  0  0  0
   18.0400   -5.9160    8.5040 O   0  0  0  0  0  0  0  0  0  0  0  0
   17.7010   -3.7890    9.8330 O   0  0  0  0  0  0  0  0  0  0  0  0
   19.8260   -4.6360    9.2090 O   0  0  0  0  0  0  0  0  0  0  0  0
  2  1  1  0
  2  3  1  1
  4  3  1  6
  5  1  1  0
  6  5  1  0
  6  4  1  0
  7  2  1  0
  6  7  1  6
  1  8  1  6
  5  9  1  1
 10  8  1  0
 11 10  1  0
 12 11  1  0
 13 12  1  0
 14 13  1  0
 14  8  1  0
 15  9  1  0
 16 15  1  0
 17 16  1  0
 18 17  1  0
 19 18  1  0
 19  9  1  0
 20 12  1  0
 21 17  1  0
 22  4  1  0
 22 23  1  6
 24 22  1  0
 25 22  1  0
M  END
$$$$
7UJ7
     RDKit          3D

 32 36  0  0  0  0  0  0  0  0999 V2000
   24.8700    2.4710  -27.1580 C   0  0  0  0  0  0  0  0  0  0  0  0
   23.5400    2.6380  -26.9200 C   0  0  0  0  0  0  0  0  0  0  0  0
   22.6990    1.5460  -26.9120 C   0  0  2  0  0  0  0  0  0  0  0  0
   23.2140    0.3030  -27.1990 C   0  0  0  0  0  0  0  0  0  0  0  0
   24.5680    0.1320  -27.4540 C   0  0  0  0  0  0  0  0  0  0  0  0
   25.4300    1.2220  -27.4170 C   0  0  1  0  0  0  0  0  0  0  0  0
   25.0730   -1.2610  -27.7290 C   0  0  0  0  0  0  0  0  0  0  0  0
   26.3980   -1.2780  -28.4350 C   0  0  0  0  0  0  0  0  0  0  0  0
   27.3870   -0.3790  -27.7160 C   0  0  2  0  0  0  0  0  0  0  0  0
   26.9050    1.0820  -27.7620 C   0  0  2  0  0  0  0  0  0  0  0  0
   28.7600   -0.4430  -28.3550 C   0  0  1  0  0  0  0  0  0  0  0  0
   29.7790    0.4360  -27.6350 C   0  0  2  0  0  0  0  0  0  0  0  0
   29.2950    1.8750  -27.6650 C   0  0  0  0  0  0  0  0  0  0  0  0
   27.8780    2.1020  -27.1390 C   0  0  2  0  0  0  0  0  0  0  0  0
   29.4900   -1.7850  -28.5030 C   0  0  0  0  0  0  0  0  0  0  0  0
   30.9470   -1.3560  -28.7920 C   0  0  0  0  0  0  0  0  0  0  0  0
   31.0070    0.1520  -28.5150 C   0  0  2  0  0  0  0  0  0  0  0  0
   30.0270   -0.0440  -26.2100 C   0  0  0  0  0  0  0  0  0  0  0  0
   27.8600    2.2190  -25.6270 C   0  0  0  0  0  0  0  0  0  0  0  0
   27.1880    1.3200  -24.8310 C   0  0  0  0  0  0  0  0  0  0  0  0
   27.2150    1.4190  -23.4570 C   0  0  0  0  0  0  0  0  0  0  0  0
   27.9260    2.4260  -22.8480 C   0  0  0  0  0  0  0  0  0  0  0  0
   28.5940    3.3440  -23.6280 C   0  0  0  0  0  0  0  0  0  0  0  0
   28.5640    3.2250  -24.9980 C   0  0  0  0  0  0  0  0  0  0  0  0
   28.7380    3.4970  -20.8840 C   0  0  0  0  0  0  0  0  0  0  0  0
   28.7230    3.2860  -19.3980 C   0  0  0  0  0  0  0  0  0  0  0  0
   26.3520    3.3540  -19.1040 C   0  0  0  0  0  0  0  0  0  0  0  0
   27.8060    3.9980  -17.3370 C   0  0  0  0  0  0  0  0  0  0  0  0
   27.6310    3.9780  -18.7820 N   0  0  0  0  0  0  0  0  0  0  0  0
   21.3620    1.6820  -26.6880 O   0  0  0  0  0  0  0  0  0  0  0  0
   32.2460    0.5570  -27.9590 O   0  0  0  0  0  0  0  0  0  0  0  0
   27.9280    2.5030  -21.4880 O   0  0  0  0  0  0  0  0  0  0  0  0
  2  1  1  0
  3  2  1  0
  4  3  1  0
  5  4  1  0
  6  5  1  0
  6  1  1  6
  7  5  1  0
  8  7  1  0
  9  8  1  6
 10  6  1  0
 10  9  1  0
 11  9  1  0
 12 11  1  0
 13 12  1  0
 10 14  1  1
 14 13  1  0
 11 15  1  1
 16 15  1  0
 17 16  1  0
 17 12  1  0
 12 18  1  1
 14 19  1  1
 20 19  1  0
 21 20  1  0
 22 21  1  0
 23 22  1  0
 24 23  1  0
 24 19  1  0
 26 25  1  0
 29 27  1  0
 29 28  1  0
 29 26  1  0
  3 30  1  6
 17 31  1  1
 32 22  1  0
 32 25  1  0
M  END
$$$$
9I74
     RDKit          3D

 42 43  0  0  0  0  0  0  0  0999 V2000
  -12.8190   -7.9750   14.7170 N   0  0  0  0  0  0  0  0  0  0  0  0
  -13.7120   -9.1310   14.6730 C   0  0  2  0  0  0  0  0  0  0  0  0
  -13.0510  -10.3600   14.0420 C   0  0  0  0  0  0  0  0  0  0  0  0
  -12.1610  -10.2550   13.1880 O   0  0  0  0  0  0  0  0  0  0  0  0
  -15.0310   -8.7410   13.9600 C   0  0  0  0  0  0  0  0  0  0  0  0
  -14.9270   -8.2350   12.5410 C   0  0  0  0  0  0  0  0  0  0  0  0
  -14.8800   -9.1210   11.4710 C   0  0  0  0  0  0  0  0  0  0  0  0
  -14.9500   -6.8700   12.2650 C   0  0  0  0  0  0  0  0  0  0  0  0
  -14.7940   -8.6520   10.1620 C   0  0  0  0  0  0  0  0  0  0  0  0
  -14.8550   -6.4030   10.9450 C   0  0  0  0  0  0  0  0  0  0  0  0
  -14.7850   -7.2940    9.9080 C   0  0  0  0  0  0  0  0  0  0  0  0
  -13.4160  -11.5820   14.4820 N   0  0  0  0  0  0  0  0  0  0  0  0
  -12.8530  -12.7860   13.8890 C   0  0  2  0  0  0  0  0  0  0  0  0
  -13.4390  -13.0990   12.5120 C   0  0  0  0  0  0  0  0  0  0  0  0
  -14.5060  -12.6210   12.1450 O   0  0  0  0  0  0  0  0  0  0  0  0
  -13.1800  -13.8370   14.9370 C   0  0  0  0  0  0  0  0  0  0  0  0
  -14.4800  -13.3910   15.4910 C   0  0  0  0  0  0  0  0  0  0  0  0
  -14.4210  -11.8860   15.5180 C   0  0  0  0  0  0  0  0  0  0  0  0
  -12.7310  -13.9200   11.7560 N   0  0  0  0  0  0  0  0  0  0  0  0
  -13.1180  -14.3070   10.4130 C   0  0  2  0  0  0  0  0  0  0  0  0
  -14.2350  -15.3480   10.4040 C   0  0  0  0  0  0  0  0  0  0  0  0
  -14.1920  -16.3300   11.1420 O   0  0  0  0  0  0  0  0  0  0  0  0
  -11.9260  -14.9020    9.6870 C   0  0  0  0  0  0  0  0  0  0  0  0
  -15.2240  -15.0720    9.5520 N   0  0  0  0  0  0  0  0  0  0  0  0
  -16.2770  -16.0030    9.2240 C   0  0  1  0  0  0  0  0  0  0  0  0
  -17.5870  -15.7030    9.9900 C   0  0  1  0  0  0  0  0  0  0  0  0
  -17.4390  -15.8300   11.4910 C   0  0  0  0  0  0  0  0  0  0  0  0
  -17.9160  -14.3190    9.6510 O   0  0  0  0  0  0  0  0  0  0  0  0
  -19.3570  -13.6690    9.9980 P   0  0  0  0  0  0  0  0  0  0  0  0
  -19.3420  -13.3150   11.4700 O   0  0  0  0  0  0  0  0  0  0  0  0
  -19.4150  -12.4670    9.0790 O   0  0  0  0  0  0  0  0  0  0  0  0
  -20.3940  -14.7330    9.6840 O   0  0  0  0  0  0  0  0  0  0  0  0
  -16.5000  -15.9810    7.7170 C   0  0  0  0  0  0  0  0  0  0  0  0
  -16.1080  -15.0470    7.0480 O   0  0  0  0  0  0  0  0  0  0  0  0
  -17.1010  -17.0520    7.2060 N   0  0  0  0  0  0  0  0  0  0  0  0
  -17.4040  -17.1460    5.7940 C   0  0  2  0  0  0  0  0  0  0  0  0
  -18.8310  -17.4350    5.4880 C   0  0  0  0  0  0  0  0  0  0  0  0
  -19.6300  -17.8320    6.3690 O   0  0  0  0  0  0  0  0  0  0  0  0
  -16.5340  -18.1970    5.0940 C   0  0  0  0  0  0  0  0  0  0  0  0
  -15.0870  -17.8230    5.1640 C   0  0  0  0  0  0  0  0  0  0  0  0
  -16.7550  -19.5950    5.6700 C   0  0  0  0  0  0  0  0  0  0  0  0
  -19.1970  -17.2970    4.2930 O   0  0  0  0  0  0  0  0  0  0  0  0
  2  1  1  6
  3  2  1  0
  4  3  2  0
  5  2  1  0
  6  5  1  0
  7  6  2  0
  8  6  1  0
  9  7  1  0
 10  8  2  0
 11  9  2  0
 11 10  1  0
 12  3  1  0
 13 12  1  0
 13 14  1  6
 15 14  2  0
 16 13  1  0
 17 16  1  0
 18 17  1  0
 18 12  1  0
 19 14  1  0
 20 19  1  0
 21 20  1  0
 22 21  2  0
 20 23  1  1
 24 21  1  0
 25 24  1  6
 26 25  1  0
 26 27  1  1
 28 26  1  0
 29 28  1  0
 30 29  1  0
 31 29  1  0
 32 29  1  0
 33 25  1  0
 34 33  1  0
 35 33  1  0
 36 35  1  1
 37 36  1  0
 38 37  2  0
 39 36  1  0
 40 39  1  0
 41 39  1  0
 42 37  1  0
M  END
$$$$
7NFB
     RDKit          3D

 30 32  0  0  0  0  0  0  0  0999 V2000
   26.6580  -11.0500    9.1090 C   0  0  0  0  0  0  0  0  0  0  0  0
   26.5120  -11.6830   10.3340 C   0  0  0  0  0  0  0  0  0  0  0  0
   27.5070  -11.5630   11.2550 O   0  0  0  0  0  0  0  0  0  0  0  0
   25.3760  -12.4280   10.6500 C   0  0  0  0  0  0  0  0  0  0  0  0
   24.3830  -12.5440    9.6820 C   0  0  0  0  0  0  0  0  0  0  0  0
   23.2940  -13.2630    9.9760 O   0  0  0  0  0  0  0  0  0  0  0  0
   24.4730  -11.9280    8.4400 C   0  0  0  0  0  0  0  0  0  0  0  0
   23.4220  -12.0710    7.4170 C   0  0  0  0  0  0  0  0  0  0  0  0
   22.4250  -12.7270    7.6080 O   0  0  0  0  0  0  0  0  0  0  0  0
   23.6900  -11.3930    6.1680 C   0  0  2  0  0  0  0  0  0  0  0  0
   24.8090  -10.6600    6.0670 C   0  0  0  0  0  0  0  0  0  0  0  0
   25.8070  -10.5720    6.9940 O   0  0  0  0  0  0  0  0  0  0  0  0
   25.6170  -11.2020    8.1860 C   0  0  0  0  0  0  0  0  0  0  0  0
   22.7430  -11.3290    5.0300 C   0  0  0  0  0  0  0  0  0  0  0  0
   23.2670  -11.1290    3.7500 C   0  0  0  0  0  0  0  0  0  0  0  0
   22.4240  -11.0090    2.6490 C   0  0  0  0  0  0  0  0  0  0  0  0
   21.0540  -11.0980    2.8440 C   0  0  0  0  0  0  0  0  0  0  0  0
   20.2270  -10.9750    1.7660 O   0  0  0  0  0  0  0  0  0  0  0  0
   20.5110  -11.3100    4.1150 C   0  0  0  0  0  0  0  0  0  0  0  0
   21.3610  -11.4130    5.2070 C   0  0  0  0  0  0  0  0  0  0  0  0
   27.4150  -10.5470    8.9100 H   0  0  0  0  0  0  0  0  0  0  0  0
   28.0850  -12.1380   10.9970 H   0  0  0  0  0  0  0  0  0  0  0  0
   25.2820  -12.8350   11.4800 H   0  0  0  0  0  0  0  0  0  0  0  0
   23.5770  -14.0630    9.9640 H   0  0  0  0  0  0  0  0  0  0  0  0
   25.0490  -10.1160    5.3510 H   0  0  0  0  0  0  0  0  0  0  0  0
   24.1860  -11.0740    3.6200 H   0  0  0  0  0  0  0  0  0  0  0  0
   22.7640  -10.8710    1.7940 H   0  0  0  0  0  0  0  0  0  0  0  0
   20.2550  -10.1280    1.5900 H   0  0  0  0  0  0  0  0  0  0  0  0
   19.5900  -11.3800    4.2180 H   0  0  0  0  0  0  0  0  0  0  0  0
   21.0020  -11.5380    6.0560 H   0  0  0  0  0  0  0  0  0  0  0  0
  2  1  1  0
  3  2  1  0
  4  2  1  0
  5  4  1  0
  6  5  1  0
  7  5  1  0
  8  7  1  0
  9  8  1  0
 10  8  1  0
 11 10  1  0
 12 11  1  0
 13  7  1  0
 13  1  1  0
 13 12  1  0
 10 14  1  1
 15 14  1  0
 16 15  1  0
 17 16  1  0
 18 17  1  0
 19 17  1  0
 20 19  1  0
 20 14  1  0
 21  1  1  0
 22  3  1  0
 23  4  1  0
 24  6  1  0
 25 11  1  0
 26 15  1  0
 27 16  1  0
 28 18  1  0
 29 19  1  0
 30 20  1  0
M  END
$$$$
8ARR
     RDKit          3D

 42 43  0  0  0  0  0  0  0  0999 V2000
   12.3290    8.0020   14.3190 N   0  0  0  0  0  0  0  0  0  0  0  0
   13.4930    8.9410   14.2850 C   0  0  2  0  0  0  0  0  0  0  0  0
   13.1010   10.2200   13.5540 C   0  0  0  0  0  0  0  0  0  0  0  0
   12.4900   10.1630   12.4870 O   0  0  0  0  0  0  0  0  0  0  0  0
   14.6840    8.2730   13.6050 C   0  0  0  0  0  0  0  0  0  0  0  0
   15.1790    7.0560   14.3360 C   0  0  0  0  0  0  0  0  0  0  0  0
   15.3610    7.0820   15.7170 C   0  0  0  0  0  0  0  0  0  0  0  0
   15.4720    5.8810   13.6500 C   0  0  0  0  0  0  0  0  0  0  0  0
   15.8220    5.9620   16.3960 C   0  0  0  0  0  0  0  0  0  0  0  0
   15.9360    4.7590   14.3270 C   0  0  0  0  0  0  0  0  0  0  0  0
   16.1110    4.8020   15.6980 C   0  0  0  0  0  0  0  0  0  0  0  0
   13.4410   11.4170   14.0860 N   0  0  0  0  0  0  0  0  0  0  0  0
   12.8430   12.6440   13.5730 C   0  0  2  0  0  0  0  0  0  0  0  0
   13.4210   13.0200   12.2060 C   0  0  0  0  0  0  0  0  0  0  0  0
   14.5020   12.5980   11.8410 O   0  0  0  0  0  0  0  0  0  0  0  0
   13.1930   13.6680   14.6490 C   0  0  0  0  0  0  0  0  0  0  0  0
   14.5280   13.1950   15.1660 C   0  0  0  0  0  0  0  0  0  0  0  0
   14.4200   11.6790   15.1560 C   0  0  0  0  0  0  0  0  0  0  0  0
   12.6850   13.8440   11.4650 N   0  0  0  0  0  0  0  0  0  0  0  0
   13.0750   14.2590   10.1570 C   0  0  2  0  0  0  0  0  0  0  0  0
   14.1930   15.2770   10.1870 C   0  0  0  0  0  0  0  0  0  0  0  0
   14.1290   16.2510   10.9430 O   0  0  0  0  0  0  0  0  0  0  0  0
   11.9030   14.8840    9.4290 C   0  0  0  0  0  0  0  0  0  0  0  0
   15.1810   15.0680    9.3270 N   0  0  0  0  0  0  0  0  0  0  0  0
   16.2630   16.0170    9.0230 C   0  0  1  0  0  0  0  0  0  0  0  0
   17.5450   15.7030    9.8030 C   0  0  1  0  0  0  0  0  0  0  0  0
   17.3750   15.8430   11.2990 C   0  0  0  0  0  0  0  0  0  0  0  0
   17.8710   14.3240    9.4550 O   0  0  0  0  0  0  0  0  0  0  0  0
   19.3130   13.6850    9.8340 P   0  0  0  0  0  0  0  0  0  0  0  0
   19.3350   12.4690    8.9120 O   0  0  0  0  0  0  0  0  0  0  0  0
   19.2870   13.3130   11.2890 O   0  0  0  0  0  0  0  0  0  0  0  0
   20.3460   14.6850    9.5190 O   0  0  0  0  0  0  0  0  0  0  0  0
   16.4970   16.0640    7.5180 C   0  0  0  0  0  0  0  0  0  0  0  0
   16.1610   15.0690    6.8280 O   0  0  0  0  0  0  0  0  0  0  0  0
   17.0840   17.1370    7.0420 N   0  0  0  0  0  0  0  0  0  0  0  0
   17.3930   17.2260    5.6290 C   0  0  2  0  0  0  0  0  0  0  0  0
   18.8130   17.5200    5.3240 C   0  0  0  0  0  0  0  0  0  0  0  0
   19.5890   17.9350    6.1920 O   0  0  0  0  0  0  0  0  0  0  0  0
   16.5520   18.2690    4.9160 C   0  0  0  0  0  0  0  0  0  0  0  0
   15.0950   17.8620    5.0000 C   0  0  0  0  0  0  0  0  0  0  0  0
   16.8040   19.6590    5.4900 C   0  0  0  0  0  0  0  0  0  0  0  0
   19.2180   17.3420    4.1530 O   0  0  0  0  0  0  0  0  0  0  0  0
  2  1  1  6
  3  2  1  0
  4  3  2  0
  5  2  1  0
  6  5  1  0
  7  6  2  0
  8  6  1  0
  9  7  1  0
 10  8  2  0
 11 10  1  0
 11  9  2  0
 12  3  1  0
 13 12  1  0
 13 14  1  6
 15 14  2  0
 16 13  1  0
 17 16  1  0
 18 17  1  0
 18 12  1  0
 19 14  1  0
 20 19  1  0
 21 20  1  0
 22 21  2  0
 20 23  1  1
 24 21  1  0
 25 24  1  6
 26 25  1  0
 26 27  1  1
 28 26  1  0
 29 28  1  0
 30 29  1  0
 31 29  1  0
 32 29  1  0
 33 25  1  0
 34 33  1  0
 35 33  1  0
 36 35  1  1
 37 36  1  0
 38 37  2  0
 39 36  1  0
 40 39  1  0
 41 39  1  0
 42 37  1  0
M  END
$$$$
1XPC
     RDKit          3D

 33 37  0  0  0  0  0  0  0  0999 V2000
   31.2360   -0.3230   28.9130 C   0  0  2  0  0  0  0  0  0  0  0  0
   31.3560   -1.7210   28.2890 C   0  0  1  0  0  0  0  0  0  0  0  0
   30.1370   -2.4730   28.5440 O   0  0  0  0  0  0  0  0  0  0  0  0
   28.9570   -1.9550   28.1010 C   0  0  0  0  0  0  0  0  0  0  0  0
   28.0570   -2.9720   27.7510 C   0  0  0  0  0  0  0  0  0  0  0  0
   26.8160   -2.6120   27.2910 C   0  0  0  0  0  0  0  0  0  0  0  0
   26.4850   -1.2490   27.1580 C   0  0  1  0  0  0  0  0  0  0  0  0
   25.2240   -1.0180   26.7530 O   0  0  0  0  0  0  0  0  0  0  0  0
   27.3860   -0.2500   27.5540 C   0  0  0  0  0  0  0  0  0  0  0  0
   28.6760   -0.5870   27.9840 C   0  0  0  0  0  0  0  0  0  0  0  0
   29.7200    0.4830   28.3560 S   0  0  0  0  0  0  0  0  0  0  0  0
   32.5450    0.3830   28.6300 C   0  0  0  0  0  0  0  0  0  0  0  0
   32.7400    1.2430   27.5380 C   0  0  0  0  0  0  0  0  0  0  0  0
   33.9970    1.8250   27.3600 C   0  0  0  0  0  0  0  0  0  0  0  0
   35.0610    1.5840   28.2530 C   0  0  0  0  0  0  0  0  0  0  0  0
   36.2770    2.1500   28.0980 O   0  0  0  0  0  0  0  0  0  0  0  0
   34.8610    0.7370   29.3560 C   0  0  0  0  0  0  0  0  0  0  0  0
   33.5910    0.1750   29.5280 C   0  0  0  0  0  0  0  0  0  0  0  0
   31.7050   -1.8730   26.8200 C   0  0  0  0  0  0  0  0  0  0  0  0
   32.6080   -2.8710   26.4350 C   0  0  0  0  0  0  0  0  0  0  0  0
   32.9890   -3.1360   25.1010 C   0  0  0  0  0  0  0  0  0  0  0  0
   32.4950   -2.3050   24.0900 C   0  0  2  0  0  0  0  0  0  0  0  0
   31.5950   -1.2900   24.4580 C   0  0  0  0  0  0  0  0  0  0  0  0
   31.1880   -1.0920   25.7670 C   0  0  0  0  0  0  0  0  0  0  0  0
   32.7880   -2.4670   22.7870 O   0  0  0  0  0  0  0  0  0  0  0  0
   33.2980   -3.7290   22.3210 C   0  0  0  0  0  0  0  0  0  0  0  0
   33.6970   -3.6680   20.8220 C   0  0  1  0  0  0  0  0  0  0  0  0
   34.6260   -4.8430   20.6060 C   0  0  0  0  0  0  0  0  0  0  0  0
   32.5710   -3.8810   19.8960 N   0  0  0  0  0  0  0  0  0  0  0  0
   32.7060   -3.1840   18.5880 C   0  0  0  0  0  0  0  0  0  0  0  0
   31.2640   -2.9080   18.1050 C   0  0  0  0  0  0  0  0  0  0  0  0
   30.3740   -3.4510   19.2220 C   0  0  0  0  0  0  0  0  0  0  0  0
   31.3250   -3.3590   20.4480 C   0  0  0  0  0  0  0  0  0  0  0  0
  2  1  1  0
  3  2  1  0
  4  3  1  0
  5  4  1  0
  6  5  1  0
  7  6  1  0
  7  8  1  1
  9  7  1  0
 10  9  1  0
 10  4  1  0
 11 10  1  0
 11  1  1  0
  1 12  1  6
 13 12  1  0
 14 13  1  0
 15 14  1  0
 16 15  1  0
 17 15  1  0
 18 12  1  0
 18 17  1  0
  2 19  1  6
 20 19  1  0
 21 20  1  0
 22 21  1  0
 23 22  1  0
 24 23  1  0
 24 19  1  0
 22 25  1  6
 26 25  1  0
 27 26  1  0
 27 28  1  1
 29 27  1  0
 30 29  1  0
 31 30  1  0
 32 31  1  0
 33 32  1  0
 33 29  1  0
M  END
$$$$
7NIZ
     RDKit          3D

 42 43  0  0  0  0  0  0  0  0999 V2000
  -13.9220   -7.0210   15.0770 N   0  0  0  0  0  0  0  0  0  0  0  0
  -14.7530   -8.2230   15.2050 C   0  0  2  0  0  0  0  0  0  0  0  0
  -14.0800   -9.4400   14.5430 C   0  0  0  0  0  0  0  0  0  0  0  0
  -13.3010   -9.2810   13.5980 O   0  0  0  0  0  0  0  0  0  0  0  0
  -16.1460   -7.9710   14.5920 C   0  0  0  0  0  0  0  0  0  0  0  0
  -17.0460   -7.0800   15.4160 C   0  0  0  0  0  0  0  0  0  0  0  0
  -16.9550   -5.7020   15.3270 C   0  0  0  0  0  0  0  0  0  0  0  0
  -17.9840   -7.6220   16.2790 C   0  0  0  0  0  0  0  0  0  0  0  0
  -17.7880   -4.8820   16.0850 C   0  0  0  0  0  0  0  0  0  0  0  0
  -18.8230   -6.8020   17.0270 C   0  0  0  0  0  0  0  0  0  0  0  0
  -18.7160   -5.4380   16.9320 C   0  0  0  0  0  0  0  0  0  0  0  0
  -14.3600  -10.6700   15.0190 N   0  0  0  0  0  0  0  0  0  0  0  0
  -13.7750  -11.8470   14.3560 C   0  0  2  0  0  0  0  0  0  0  0  0
  -14.4140  -12.0690   12.9910 C   0  0  0  0  0  0  0  0  0  0  0  0
  -15.5390  -11.6310   12.7270 O   0  0  0  0  0  0  0  0  0  0  0  0
  -14.1070  -12.9960   15.3080 C   0  0  0  0  0  0  0  0  0  0  0  0
  -15.3380  -12.5700   15.9820 C   0  0  0  0  0  0  0  0  0  0  0  0
  -15.2640  -11.0600   16.1140 C   0  0  0  0  0  0  0  0  0  0  0  0
  -13.7020  -12.7830   12.1240 N   0  0  0  0  0  0  0  0  0  0  0  0
  -14.1730  -13.0570   10.7790 C   0  0  2  0  0  0  0  0  0  0  0  0
  -15.1490  -14.2260   10.7210 C   0  0  0  0  0  0  0  0  0  0  0  0
  -14.9610  -15.2530   11.3880 O   0  0  0  0  0  0  0  0  0  0  0  0
  -12.9840  -13.3510    9.8840 C   0  0  0  0  0  0  0  0  0  0  0  0
  -16.1620  -14.0880    9.8630 N   0  0  0  0  0  0  0  0  0  0  0  0
  -17.1460  -15.1340    9.5960 C   0  0  1  0  0  0  0  0  0  0  0  0
  -18.5000  -14.8530   10.2820 C   0  0  1  0  0  0  0  0  0  0  0  0
  -18.3670  -15.0210   11.8090 C   0  0  0  0  0  0  0  0  0  0  0  0
  -18.9110  -13.5590    9.8690 O   0  0  0  0  0  0  0  0  0  0  0  0
  -20.3650  -13.0320   10.2230 P   0  0  0  0  0  0  0  0  0  0  0  0
  -20.4200  -11.7700    9.3060 O   0  0  0  0  0  0  0  0  0  0  0  0
  -20.4340  -12.6400   11.6830 O   0  0  0  0  0  0  0  0  0  0  0  0
  -21.3630  -14.0490    9.8080 O   0  0  0  0  0  0  0  0  0  0  0  0
  -17.3010  -15.2070    8.0750 C   0  0  0  0  0  0  0  0  0  0  0  0
  -16.7960  -14.3220    7.3820 O   0  0  0  0  0  0  0  0  0  0  0  0
  -17.9660  -16.2450    7.5450 N   0  0  0  0  0  0  0  0  0  0  0  0
  -18.1240  -16.4150    6.1000 C   0  0  2  0  0  0  0  0  0  0  0  0
  -19.5390  -16.8670    5.7250 C   0  0  0  0  0  0  0  0  0  0  0  0
  -19.9230  -16.7340    4.5380 O   0  0  0  0  0  0  0  0  0  0  0  0
  -17.0740  -17.4260    5.6120 C   0  0  0  0  0  0  0  0  0  0  0  0
  -17.4240  -18.8310    6.0880 C   0  0  0  0  0  0  0  0  0  0  0  0
  -16.9130  -17.3830    4.0990 C   0  0  0  0  0  0  0  0  0  0  0  0
  -20.3010  -17.3170    6.6160 O   0  0  0  0  0  0  0  0  0  0  0  0
  2  1  1  6
  3  2  1  0
  4  3  2  0
  5  2  1  0
  6  5  1  0
  7  6  2  0
  8  6  1  0
  9  7  1  0
 10  8  2  0
 11 10  1  0
 11  9  2  0
 12  3  1  0
 13 12  1  0
 13 14  1  6
 15 14  2  0
 16 13  1  0
 17 16  1  0
 18 17  1  0
 18 12  1  0
 19 14  1  0
 20 19  1  0
 21 20  1  0
 22 21  2  0
 20 23  1  6
 24 21  1  0
 25 24  1  6
 26 25  1  0
 26 27  1  1
 28 26  1  0
 29 28  1  0
 30 29  1  0
 31 29  1  0
 32 29  1  0
 33 25  1  0
 34 33  1  0
 35 33  1  0
 36 35  1  1
 37 36  1  0
 38 37  2  0
 39 36  1  0
 40 39  1  0
 41 39  1  0
 42 37  1  0
M  END
$$$$
2IOG
     RDKit          3D

 39 43  0  0  0  0  0  0  0  0999 V2000
   28.8630    0.0960   27.3330 C   0  0  0  0  0  0  0  0  0  0  0  0
   27.7630    0.8960   27.6590 C   0  0  0  0  0  0  0  0  0  0  0  0
   26.4620    0.4010   27.5120 C   0  0  0  0  0  0  0  0  0  0  0  0
   26.2930   -0.9200   27.0730 C   0  0  1  0  0  0  0  0  0  0  0  0
   25.0170   -1.3320   26.8820 O   0  0  0  0  0  0  0  0  0  0  0  0
   27.3770   -1.7070   26.7010 C   0  0  0  0  0  0  0  0  0  0  0  0
   28.6870   -1.2010   26.8480 C   0  0  0  0  0  0  0  0  0  0  0  0
   30.2260    0.7180   27.5270 C   0  0  0  0  0  0  0  0  0  0  0  0
   30.6040    0.6810   29.0300 C   0  0  0  0  0  0  0  0  0  0  0  0
   31.8910    1.5150   29.2500 C   0  0  1  0  0  0  0  0  0  0  0  0
   32.3170    1.3690   30.7160 C   0  0  0  0  0  0  0  0  0  0  0  0
   32.9100    1.0600   28.2660 N   0  0  0  0  0  0  0  0  0  0  0  0
   33.4390    1.9920   27.4540 C   0  0  0  0  0  0  0  0  0  0  0  0
   33.1100    3.1980   27.5470 O   0  0  0  0  0  0  0  0  0  0  0  0
   34.4260    1.5960   26.4310 C   0  0  0  0  0  0  0  0  0  0  0  0
   34.7220    0.1520   26.4200 C   0  0  1  0  0  0  0  0  0  0  0  0
   35.6620   -0.7660   27.1210 C   0  0  1  0  0  0  0  0  0  0  0  0
   35.4250   -2.1180   26.5900 N   0  0  0  0  0  0  0  0  0  0  0  0
   34.4100   -2.0670   25.7000 C   0  0  0  0  0  0  0  0  0  0  0  0
   33.8670   -3.1370   24.9630 C   0  0  0  0  0  0  0  0  0  0  0  0
   32.9250   -2.8240   23.9530 C   0  0  2  0  0  0  0  0  0  0  0  0
   32.3640   -1.5490   23.8960 C   0  0  0  0  0  0  0  0  0  0  0  0
   32.8250   -0.5170   24.7440 C   0  0  0  0  0  0  0  0  0  0  0  0
   33.9090   -0.7860   25.6050 C   0  0  2  0  0  0  0  0  0  0  0  0
   36.7320   -0.3820   28.1050 C   0  0  0  0  0  0  0  0  0  0  0  0
   36.5890    0.7280   28.9540 C   0  0  0  0  0  0  0  0  0  0  0  0
   37.6190    1.0380   29.8810 C   0  0  0  0  0  0  0  0  0  0  0  0
   38.7990    0.2900   29.9170 C   0  0  0  0  0  0  0  0  0  0  0  0
   38.9350   -0.7980   29.0800 C   0  0  0  0  0  0  0  0  0  0  0  0
   37.8940   -1.1550   28.1710 C   0  0  0  0  0  0  0  0  0  0  0  0
   32.3420   -3.8020   23.2300 O   0  0  0  0  0  0  0  0  0  0  0  0
   33.0450   -4.6620   22.3200 C   0  0  0  0  0  0  0  0  0  0  0  0
   33.5890   -3.9920   21.0560 C   0  0  0  0  0  0  0  0  0  0  0  0
   32.6150   -4.1210   19.9290 N   0  0  0  0  0  0  0  0  0  0  0  0
   33.2600   -3.3100   18.8600 C   0  0  0  0  0  0  0  0  0  0  0  0
   32.2890   -3.0900   17.6880 C   0  0  0  0  0  0  0  0  0  0  0  0
   31.0240   -2.3810   18.1820 C   0  0  0  0  0  0  0  0  0  0  0  0
   30.3630   -3.3220   19.2000 C   0  0  0  0  0  0  0  0  0  0  0  0
   31.3470   -3.5140   20.3610 C   0  0  0  0  0  0  0  0  0  0  0  0
  2  1  1  0
  3  2  1  0
  4  3  1  0
  4  5  1  6
  6  4  1  0
  7  6  1  0
  7  1  1  0
  8  1  1  0
  9  8  1  0
 10  9  1  0
 10 11  1  1
 12 10  1  0
 13 12  1  0
 14 13  1  0
 15 13  1  0
 16 15  1  1
 17 16  1  0
 18 17  1  0
 19 18  1  0
 20 19  1  0
 21 20  1  0
 22 21  1  0
 23 22  1  0
 24 23  1  6
 24 19  1  0
 24 16  1  0
 17 25  1  6
 26 25  1  0
 27 26  1  0
 28 27  1  0
 29 28  1  0
 30 25  1  0
 30 29  1  0
 21 31  1  1
 32 31  1  0
 33 32  1  0
 34 33  1  0
 35 34  1  0
 36 35  1  0
 37 36  1  0
 38 37  1  0
 39 38  1  0
 39 34  1  0
M  END
$$$$
3HM1
     RDKit          3D

 79 79  0  0  0  0  0  0  0  0999 V2000
   -8.8290   17.2170   22.9420 N   0  0  0  0  0  0  0  0  0  0  0  0
   -7.7860   16.1980   22.9220 C   0  0  2  0  0  0  0  0  0  0  0  0
   -7.5120   15.6920   24.3300 C   0  0  0  0  0  0  0  0  0  0  0  0
   -6.9000   16.3840   25.1410 O   0  0  0  0  0  0  0  0  0  0  0  0
   -6.5000   16.7500   22.2930 C   0  0  0  0  0  0  0  0  0  0  0  0
   -5.2420   15.9140   22.5620 C   0  0  0  0  0  0  0  0  0  0  0  0
   -4.8560   15.0080   21.3980 C   0  0  0  0  0  0  0  0  0  0  0  0
   -4.3590   15.8120   20.1980 C   0  0  0  0  0  0  0  0  0  0  0  0
   -3.4420   16.9250   20.5830 N   0  0  0  0  0  0  0  0  0  0  0  0
   -7.9680   14.4770   24.6160 N   0  0  0  0  0  0  0  0  0  0  0  0
   -7.7170   13.8520   25.9100 C   0  0  2  0  0  0  0  0  0  0  0  0
   -6.2230   13.6390   26.1690 C   0  0  0  0  0  0  0  0  0  0  0  0
   -5.7560   13.7630   27.3020 O   0  0  0  0  0  0  0  0  0  0  0  0
   -8.4530   12.5040   26.0290 C   0  0  2  0  0  0  0  0  0  0  0  0
   -9.9690   12.7170   25.9360 C   0  0  0  0  0  0  0  0  0  0  0  0
   -8.0830   11.8100   27.3320 C   0  0  0  0  0  0  0  0  0  0  0  0
  -10.7790   11.4310   25.8740 C   0  0  0  0  0  0  0  0  0  0  0  0
   -5.4770   13.3140   25.1170 N   0  0  0  0  0  0  0  0  0  0  0  0
   -4.0370   13.1150   25.2490 C   0  0  2  0  0  0  0  0  0  0  0  0
   -3.3460   14.4070   25.6830 C   0  0  0  0  0  0  0  0  0  0  0  0
   -2.4620   14.3890   26.5400 O   0  0  0  0  0  0  0  0  0  0  0  0
   -3.4370   12.6090   23.9370 C   0  0  0  0  0  0  0  0  0  0  0  0
   -1.9170   12.4230   23.9290 C   0  0  0  0  0  0  0  0  0  0  0  0
   -1.4520   11.7330   25.1990 C   0  0  0  0  0  0  0  0  0  0  0  0
   -1.4700   11.6490   22.6910 C   0  0  0  0  0  0  0  0  0  0  0  0
   -3.7640   15.5230   25.0940 N   0  0  0  0  0  0  0  0  0  0  0  0
   -3.1740   16.8190   25.3920 C   0  0  2  0  0  0  0  0  0  0  0  0
   -3.3900   17.1460   26.8540 C   0  0  0  0  0  0  0  0  0  0  0  0
   -2.5200   17.7190   27.5130 O   0  0  0  0  0  0  0  0  0  0  0  0
   -3.8040   17.9070   24.5260 C   0  0  0  0  0  0  0  0  0  0  0  0
   -2.9640   19.1390   24.4010 C   0  0  0  0  0  0  0  0  0  0  0  0
   -2.5370   19.6250   23.1850 N   0  0  0  0  0  0  0  0  0  0  0  0
   -2.4630   19.9740   25.3400 C   0  0  0  0  0  0  0  0  0  0  0  0
   -1.8170   20.7160   23.3790 C   0  0  0  0  0  0  0  0  0  0  0  0
   -1.7550   20.9480   24.6780 N   0  0  0  0  0  0  0  0  0  0  0  0
   -4.5630   16.7770   27.3520 N   0  0  0  0  0  0  0  0  0  0  0  0
   -4.9320   17.0600   28.7300 C   0  0  2  0  0  0  0  0  0  0  0  0
   -4.0840   16.2140   29.6700 C   0  0  0  0  0  0  0  0  0  0  0  0
   -3.4320   16.7380   30.5670 O   0  0  0  0  0  0  0  0  0  0  0  0
   -6.4260   16.8010   28.9440 C   0  0  0  0  0  0  0  0  0  0  0  0
   -7.0910   17.7720   29.9000 C   0  0  0  0  0  0  0  0  0  0  0  0
   -8.5360   18.0300   29.5080 C   0  0  0  0  0  0  0  0  0  0  0  0
   -9.0230   19.3080   30.0260 N   0  0  0  0  0  0  0  0  0  0  0  0
   -8.8120   20.4860   29.4470 C   0  0  0  0  0  0  0  0  0  0  0  0
   -8.1170   20.5550   28.3200 N   0  0  0  0  0  0  0  0  0  0  0  0
   -9.2960   21.5940   29.9970 N   0  0  0  0  0  0  0  0  0  0  0  0
   -4.0820   14.9050   29.4480 N   0  0  0  0  0  0  0  0  0  0  0  0
   -3.2620   13.9960   30.2410 C   0  0  2  0  0  0  0  0  0  0  0  0
   -1.7820   14.3760   30.2280 C   0  0  0  0  0  0  0  0  0  0  0  0
   -1.0620   14.0900   31.1770 O   0  0  0  0  0  0  0  0  0  0  0  0
   -3.4260   12.5540   29.7520 C   0  0  0  0  0  0  0  0  0  0  0  0
   -4.3990   11.6430   30.5030 C   0  0  0  0  0  0  0  0  0  0  0  0
   -5.6380   12.4070   30.9360 C   0  0  0  0  0  0  0  0  0  0  0  0
   -4.7700   10.4430   29.6430 C   0  0  0  0  0  0  0  0  0  0  0  0
   -1.3240   15.0150   29.1540 N   0  0  0  0  0  0  0  0  0  0  0  0
    0.0970   15.3540   29.0220 C   0  0  2  0  0  0  0  0  0  0  0  0
    0.5550   16.5070   29.9150 C   0  0  0  0  0  0  0  0  0  0  0  0
    1.7550   16.7150   30.1080 O   0  0  0  0  0  0  0  0  0  0  0  0
    0.4550   15.6650   27.5690 C   0  0  0  0  0  0  0  0  0  0  0  0
    1.2260   14.5760   26.8250 C   0  0  0  0  0  0  0  0  0  0  0  0
    1.4080   14.9680   25.3680 C   0  0  0  0  0  0  0  0  0  0  0  0
    2.5700   14.3240   27.4920 C   0  0  0  0  0  0  0  0  0  0  0  0
   -0.3950   17.2570   30.4540 N   0  0  0  0  0  0  0  0  0  0  0  0
   -0.0550   18.4330   31.2400 C   0  0  2  0  0  0  0  0  0  0  0  0
   -0.7480   18.4230   32.6000 C   0  0  0  0  0  0  0  0  0  0  0  0
   -0.6400   19.3720   33.3740 O   0  0  0  0  0  0  0  0  0  0  0  0
   -0.3720   19.6950   30.4450 C   0  0  0  0  0  0  0  0  0  0  0  0
    0.5360   19.8790   29.2380 C   0  0  0  0  0  0  0  0  0  0  0  0
    1.7120   20.8030   29.5210 C   0  0  0  0  0  0  0  0  0  0  0  0
    1.7080   21.9710   29.1230 O   0  0  0  0  0  0  0  0  0  0  0  0
    2.7240   20.2850   30.2140 N   0  0  0  0  0  0  0  0  0  0  0  0
   -1.4450   17.3270   32.8840 N   0  0  0  0  0  0  0  0  0  0  0  0
   -2.0690   17.1090   34.1860 C   0  0  2  0  0  0  0  0  0  0  0  0
   -1.0800   16.5210   35.1860 C   0  0  0  0  0  0  0  0  0  0  0  0
   -0.3750   15.5640   34.8740 O   0  0  0  0  0  0  0  0  0  0  0  0
   -3.2760   16.1770   34.0520 C   0  0  0  0  0  0  0  0  0  0  0  0
   -4.4860   16.8740   33.4620 C   0  0  0  0  0  0  0  0  0  0  0  0
   -4.2990   17.8910   32.7610 O   0  0  0  0  0  0  0  0  0  0  0  0
   -5.6220   16.4120   33.7070 O   0  0  0  0  0  0  0  0  0  0  0  0
  2  1  1  1
  3  2  1  0
  4  3  2  0
  5  2  1  0
  6  5  1  0
  7  6  1  0
  8  7  1  0
  9  8  1  0
 10  3  1  0
 11 10  1  6
 12 11  1  0
 13 12  2  0
 14 11  1  0
 15 14  1  0
 14 16  1  1
 17 15  1  0
 18 12  1  0
 19 18  1  0
 20 19  1  0
 21 20  2  0
 19 22  1  6
 23 22  1  0
 24 23  1  0
 25 23  1  0
 26 20  1  0
 27 26  1  0
 28 27  1  0
 29 28  2  0
 27 30  1  6
 31 30  1  0
 32 31  1  0
 33 31  2  0
 34 32  2  0
 35 34  1  0
 35 33  1  0
 36 28  1  0
 37 36  1  0
 38 37  1  0
 39 38  2  0
 37 40  1  6
 41 40  1  0
 42 41  1  0
 43 42  1  0
 44 43  1  0
 45 44  1  0
 46 44  2  0
 47 38  1  0
 48 47  1  0
 49 48  1  0
 50 49  2  0
 48 51  1  6
 52 51  1  0
 53 52  1  0
 54 52  1  0
 55 49  1  0
 56 55  1  0
 57 56  1  0
 58 57  2  0
 56 59  1  6
 60 59  1  0
 61 60  1  0
 62 60  1  0
 63 57  1  0
 64 63  1  0
 65 64  1  0
 66 65  2  0
 64 67  1  6
 68 67  1  0
 69 68  1  0
 70 69  2  0
 71 69  1  0
 72 65  1  0
 73 72  1  0
 74 73  1  0
 75 74  2  0
 73 76  1  6
 77 76  1  0
 78 77  2  0
 79 77  1  0
M  END
$$$$
8BXS
     RDKit          3D

 71 72  0  0  0  0  0  0  0  0999 V2000
   28.3700   -8.0030   14.4530 N   0  0  0  0  0  0  0  0  0  0  0  0
   27.4310   -9.1230   14.4440 C   0  0  2  0  0  0  0  0  0  0  0  0
   28.0470  -10.3540   13.7900 C   0  0  0  0  0  0  0  0  0  0  0  0
   28.8970  -10.2450   12.9020 O   0  0  0  0  0  0  0  0  0  0  0  0
   26.1360   -8.7210   13.7280 C   0  0  0  0  0  0  0  0  0  0  0  0
   26.3410   -8.1830   12.3370 C   0  0  0  0  0  0  0  0  0  0  0  0
   26.7220   -9.0150   11.2920 C   0  0  0  0  0  0  0  0  0  0  0  0
   26.1610   -6.8300   12.0780 C   0  0  0  0  0  0  0  0  0  0  0  0
   26.9130   -8.5080   10.0170 C   0  0  0  0  0  0  0  0  0  0  0  0
   26.3570   -6.3180   10.8080 C   0  0  0  0  0  0  0  0  0  0  0  0
   26.7230   -7.1560    9.7760 C   0  0  0  0  0  0  0  0  0  0  0  0
   27.2070   -9.3610   15.3570 H   0  0  0  0  0  0  0  0  0  0  0  0
   25.5650   -9.5020   13.6600 H   0  0  0  0  0  0  0  0  0  0  0  0
   25.6950   -8.0320   14.2490 H   0  0  0  0  0  0  0  0  0  0  0  0
   26.8510   -9.9230   11.4500 H   0  0  0  0  0  0  0  0  0  0  0  0
   25.9040   -6.2610   12.7670 H   0  0  0  0  0  0  0  0  0  0  0  0
   27.1680   -9.0730    9.3230 H   0  0  0  0  0  0  0  0  0  0  0  0
   26.2420   -5.4090   10.6500 H   0  0  0  0  0  0  0  0  0  0  0  0
   26.8430   -6.8150    8.9190 H   0  0  0  0  0  0  0  0  0  0  0  0
   27.6250  -11.5320   14.2260 N   0  0  0  0  0  0  0  0  0  0  0  0
   28.2040  -12.7600   13.6790 C   0  0  2  0  0  0  0  0  0  0  0  0
   27.6150  -13.0870   12.3180 C   0  0  0  0  0  0  0  0  0  0  0  0
   26.5380  -12.6290   11.9430 O   0  0  0  0  0  0  0  0  0  0  0  0
   27.8310  -13.8170   14.7220 C   0  0  0  0  0  0  0  0  0  0  0  0
   26.5430  -13.3250   15.2920 C   0  0  0  0  0  0  0  0  0  0  0  0
   26.6050  -11.8090   15.2580 C   0  0  0  0  0  0  0  0  0  0  0  0
   29.1700  -12.7020   13.6130 H   0  0  0  0  0  0  0  0  0  0  0  0
   27.7180  -14.6810   14.2960 H   0  0  0  0  0  0  0  0  0  0  0  0
   28.5180  -13.8710   15.4040 H   0  0  0  0  0  0  0  0  0  0  0  0
   25.8050  -13.6480   14.7510 H   0  0  0  0  0  0  0  0  0  0  0  0
   26.4500  -13.6430   16.2030 H   0  0  0  0  0  0  0  0  0  0  0  0
   25.7470  -11.4340   15.0040 H   0  0  0  0  0  0  0  0  0  0  0  0
   26.8800  -11.4560   16.1190 H   0  0  0  0  0  0  0  0  0  0  0  0
   28.3490  -13.9070   11.5710 N   0  0  0  0  0  0  0  0  0  0  0  0
   27.9450  -14.2770   10.2450 C   0  0  2  0  0  0  0  0  0  0  0  0
   26.8220  -15.3190   10.2360 C   0  0  0  0  0  0  0  0  0  0  0  0
   26.8840  -16.2940   10.9860 O   0  0  0  0  0  0  0  0  0  0  0  0
   29.1320  -14.8200    9.4650 C   0  0  0  0  0  0  0  0  0  0  0  0
   29.0910  -14.2600   11.8230 H   0  0  0  0  0  0  0  0  0  0  0  0
   27.6090  -13.4760    9.8140 H   0  0  0  0  0  0  0  0  0  0  0  0
   28.8380  -15.0640    8.5730 H   0  0  0  0  0  0  0  0  0  0  0  0
   29.8160  -14.1340    9.4120 H   0  0  0  0  0  0  0  0  0  0  0  0
   29.4810  -15.6000    9.9240 H   0  0  0  0  0  0  0  0  0  0  0  0
   25.8240  -15.0790    9.3830 N   0  0  0  0  0  0  0  0  0  0  0  0
   24.7680  -16.0410    9.0800 C   0  0  1  0  0  0  0  0  0  0  0  0
   23.4500  -15.7150    9.8380 C   0  0  1  0  0  0  0  0  0  0  0  0
   23.6650  -15.9080   11.3490 C   0  0  0  0  0  0  0  0  0  0  0  0
   23.1920  -14.3570    9.4840 O   0  0  0  0  0  0  0  0  0  0  0  0
   21.7470  -13.7440    9.8570 P   0  0  0  0  0  0  0  0  0  0  0  0
   21.6900  -12.4560    8.9110 O   0  0  0  0  0  0  0  0  0  0  0  0
   21.7690  -13.3730   11.2870 O   0  0  0  0  0  0  0  0  0  0  0  0
   20.6200  -14.7470    9.4880 O   0  0  0  0  0  0  0  0  0  0  0  0
   24.5440  -16.0470    7.5770 C   0  0  0  0  0  0  0  0  0  0  0  0
   24.8850  -15.0750    6.8790 O   0  0  0  0  0  0  0  0  0  0  0  0
   23.9810  -17.1310    7.0710 N   0  0  0  0  0  0  0  0  0  0  0  0
   23.7120  -17.2380    5.6380 C   0  0  2  0  0  0  0  0  0  0  0  0
   22.2860  -17.6590    5.3420 C   0  0  0  0  0  0  0  0  0  0  0  0
   21.5040  -18.0350    6.2390 O   0  0  0  0  0  0  0  0  0  0  0  0
   24.6660  -18.2430    4.9510 C   0  0  0  0  0  0  0  0  0  0  0  0
   26.0710  -17.8140    5.1410 C   0  0  0  0  0  0  0  0  0  0  0  0
   24.4080  -19.6450    5.4970 C   0  0  0  0  0  0  0  0  0  0  0  0
   21.8950  -17.6480    4.1430 O   0  0  0  0  0  0  0  0  0  0  0  0
   23.7440  -17.8180    7.5310 H   0  0  0  0  0  0  0  0  0  0  0  0
   23.8510  -16.3490    5.2760 H   0  0  0  0  0  0  0  0  0  0  0  0
   24.5040  -18.2690    3.9950 H   0  0  0  0  0  0  0  0  0  0  0  0
   26.6540  -18.4130    4.6480 H   0  0  0  0  0  0  0  0  0  0  0  0
   26.1720  -16.9080    4.8090 H   0  0  0  0  0  0  0  0  0  0  0  0
   26.2870  -17.8460    6.0860 H   0  0  0  0  0  0  0  0  0  0  0  0
   23.5640  -19.9700    5.1470 H   0  0  0  0  0  0  0  0  0  0  0  0
   25.1290  -20.2310    5.2170 H   0  0  0  0  0  0  0  0  0  0  0  0
   24.3720  -19.6060    6.4650 H   0  0  0  0  0  0  0  0  0  0  0  0
  2  1  1  0
  3  2  1  0
  4  3  2  0
  5  2  1  0
  6  5  1  0
  7  6  2  0
  8  6  1  0
  9  7  1  0
 10  8  2  0
 11 10  1  0
 11  9  2  0
  2 12  1  1
 13  5  1  0
 14  5  1  0
 15  7  1  0
 16  8  1  0
 17  9  1  0
 18 10  1  0
 19 11  1  0
 20  3  1  0
 21 20  1  0
 22 21  1  0
 23 22  2  0
 24 21  1  0
 25 24  1  0
 26 25  1  0
 26 20  1  0
 21 27  1  6
 28 24  1  0
 29 24  1  0
 30 25  1  0
 31 25  1  0
 32 26  1  0
 33 26  1  0
 34 22  1  0
 35 34  1  0
 36 35  1  0
 37 36  2  0
 38 35  1  0
 39 34  1  0
 35 40  1  6
 41 38  1  0
 42 38  1  0
 43 38  1  0
 44 36  1  0
 45 44  1  6
 46 45  1  0
 46 47  1  1
 48 46  1  0
 49 48  1  0
 50 49  1  0
 51 49  1  0
 52 49  1  0
 53 45  1  0
 54 53  1  0
 55 53  1  0
 56 55  1  0
 57 56  1  0
 58 57  2  0
 59 56  1  0
 60 59  1  0
 61 59  1  0
 62 57  1  0
 63 55  1  0
 56 64  1  6
 65 59  1  0
 66 60  1  0
 67 60  1  0
 68 60  1  0
 69 61  1  0
 70 61  1  0
 71 61  1  0
M  END
$$$$
8BX3
     RDKit          3D

 76 77  0  0  0  0  0  0  0  0999 V2000
  -12.6820   -8.0470   14.5130 N   0  0  0  0  0  0  0  0  0  0  0  0
  -13.5530   -9.2160   14.6250 C   0  0  2  0  0  0  0  0  0  0  0  0
  -12.8750  -10.4440   14.0210 C   0  0  0  0  0  0  0  0  0  0  0  0
  -11.9680  -10.3190   13.1970 O   0  0  0  0  0  0  0  0  0  0  0  0
  -14.9070   -8.9540   13.9460 C   0  0  0  0  0  0  0  0  0  0  0  0
  -14.8000   -8.4700   12.5220 C   0  0  0  0  0  0  0  0  0  0  0  0
  -14.7040   -9.3690   11.4720 C   0  0  0  0  0  0  0  0  0  0  0  0
  -14.8100   -7.1100   12.2340 C   0  0  0  0  0  0  0  0  0  0  0  0
  -14.6070   -8.9240   10.1610 C   0  0  0  0  0  0  0  0  0  0  0  0
  -14.7110   -6.6580   10.9260 C   0  0  0  0  0  0  0  0  0  0  0  0
  -14.6120   -7.5650    9.8890 C   0  0  0  0  0  0  0  0  0  0  0  0
  -13.7320   -9.3980   15.5610 H   0  0  0  0  0  0  0  0  0  0  0  0
  -15.4150   -9.7800   13.9390 H   0  0  0  0  0  0  0  0  0  0  0  0
  -15.3820   -8.2760   14.4520 H   0  0  0  0  0  0  0  0  0  0  0  0
  -14.7040  -10.2820   11.6480 H   0  0  0  0  0  0  0  0  0  0  0  0
  -14.8830   -6.4950   12.9280 H   0  0  0  0  0  0  0  0  0  0  0  0
  -14.5380   -9.5370    9.4650 H   0  0  0  0  0  0  0  0  0  0  0  0
  -14.7120   -5.7450   10.7480 H   0  0  0  0  0  0  0  0  0  0  0  0
  -14.5490   -7.2640    9.0110 H   0  0  0  0  0  0  0  0  0  0  0  0
  -13.3040  -11.6310   14.4330 N   0  0  0  0  0  0  0  0  0  0  0  0
  -12.7350  -12.8560   13.8640 C   0  0  2  0  0  0  0  0  0  0  0  0
  -13.3250  -13.1650   12.4940 C   0  0  0  0  0  0  0  0  0  0  0  0
  -14.3820  -12.6660   12.1020 O   0  0  0  0  0  0  0  0  0  0  0  0
  -13.1330  -13.9250   14.8840 C   0  0  0  0  0  0  0  0  0  0  0  0
  -14.4380  -13.4350   15.4330 C   0  0  0  0  0  0  0  0  0  0  0  0
  -14.3330  -11.9170   15.4560 C   0  0  0  0  0  0  0  0  0  0  0  0
  -11.7680  -12.8000   13.8010 H   0  0  0  0  0  0  0  0  0  0  0  0
  -13.2370  -14.7830   14.4440 H   0  0  0  0  0  0  0  0  0  0  0  0
  -12.4610  -13.9890   15.5800 H   0  0  0  0  0  0  0  0  0  0  0  0
  -15.1640  -13.7210   14.8570 H   0  0  0  0  0  0  0  0  0  0  0  0
  -14.5680  -13.7840   16.3290 H   0  0  0  0  0  0  0  0  0  0  0  0
  -15.1800  -11.5090   15.2170 H   0  0  0  0  0  0  0  0  0  0  0  0
  -14.0480  -11.6030   16.3290 H   0  0  0  0  0  0  0  0  0  0  0  0
  -12.6220  -14.0260   11.7620 N   0  0  0  0  0  0  0  0  0  0  0  0
  -13.0380  -14.3670   10.4260 C   0  0  2  0  0  0  0  0  0  0  0  0
  -14.1720  -15.3920   10.4040 C   0  0  0  0  0  0  0  0  0  0  0  0
  -14.1180  -16.3840   11.1280 O   0  0  0  0  0  0  0  0  0  0  0  0
  -11.8580  -14.9330    9.6440 C   0  0  0  0  0  0  0  0  0  0  0  0
  -11.9040  -14.4200   12.0250 H   0  0  0  0  0  0  0  0  0  0  0  0
  -13.3620  -13.5550   10.0070 H   0  0  0  0  0  0  0  0  0  0  0  0
  -11.1580  -14.2640    9.6010 H   0  0  0  0  0  0  0  0  0  0  0  0
  -11.5310  -15.7260   10.0960 H   0  0  0  0  0  0  0  0  0  0  0  0
  -12.1540  -15.1610    8.7480 H   0  0  0  0  0  0  0  0  0  0  0  0
  -15.1750  -15.1360    9.5710 N   0  0  0  0  0  0  0  0  0  0  0  0
  -16.2440  -16.0860    9.2600 C   0  0  1  0  0  0  0  0  0  0  0  0
  -17.5530  -15.7500    9.9980 C   0  0  1  0  0  0  0  0  0  0  0  0
  -17.3870  -15.9110   11.5000 C   0  0  2  0  0  0  0  0  0  0  0  0
  -17.8540  -14.3910    9.6080 O   0  0  0  0  0  0  0  0  0  0  0  0
  -19.2940  -13.7550   10.0110 P   0  0  0  0  0  0  0  0  0  0  0  0
  -19.3740  -12.4720    9.0700 O   0  0  0  0  0  0  0  0  0  0  0  0
  -19.3130  -13.4050   11.4600 O   0  0  0  0  0  0  0  0  0  0  0  0
  -20.3970  -14.7940    9.6430 O   0  0  0  0  0  0  0  0  0  0  0  0
  -16.4630  -16.0820    7.7430 C   0  0  0  0  0  0  0  0  0  0  0  0
  -16.0710  -15.1120    7.0580 O   0  0  0  0  0  0  0  0  0  0  0  0
  -15.9910  -16.9810    9.5680 H   0  0  0  0  0  0  0  0  0  0  0  0
  -18.3710  -16.4210    9.7370 H   0  0  0  0  0  0  0  0  0  0  0  0
  -17.0670  -16.9280   11.7230 H   0  0  0  0  0  0  0  0  0  0  0  0
  -18.3380  -15.7130   11.9940 H   0  0  0  0  0  0  0  0  0  0  0  0
  -16.6370  -15.2070   11.8610 H   0  0  0  0  0  0  0  0  0  0  0  0
  -17.0360  -17.1460    7.2060 N   0  0  0  0  0  0  0  0  0  0  0  0
  -17.3160  -17.2100    5.7900 C   0  0  2  0  0  0  0  0  0  0  0  0
  -18.7260  -17.6270    5.4750 C   0  0  0  0  0  0  0  0  0  0  0  0
  -19.5230  -18.0370    6.3360 O   0  0  0  0  0  0  0  0  0  0  0  0
  -16.3720  -18.1910    5.0460 C   0  0  0  0  0  0  0  0  0  0  0  0
  -14.9680  -17.7570    5.1750 C   0  0  0  0  0  0  0  0  0  0  0  0
  -16.5690  -19.6240    5.5560 C   0  0  0  0  0  0  0  0  0  0  0  0
  -19.0930  -17.5870    4.2830 O   0  0  0  0  0  0  0  0  0  0  0  0
  -17.2730  -17.8460    7.6460 H   0  0  0  0  0  0  0  0  0  0  0  0
  -17.1800  -16.3020    5.4770 H   0  0  0  0  0  0  0  0  0  0  0  0
  -16.5920  -18.1880    4.1010 H   0  0  0  0  0  0  0  0  0  0  0  0
  -14.4050  -18.3510    4.6560 H   0  0  0  0  0  0  0  0  0  0  0  0
  -14.8870  -16.8490    4.8430 H   0  0  0  0  0  0  0  0  0  0  0  0
  -14.7120  -17.7910    6.1100 H   0  0  0  0  0  0  0  0  0  0  0  0
  -15.8470  -20.1800    5.2230 H   0  0  0  0  0  0  0  0  0  0  0  0
  -16.5620  -19.6180    6.5260 H   0  0  0  0  0  0  0  0  0  0  0  0
  -17.4200  -19.9600    5.2340 H   0  0  0  0  0  0  0  0  0  0  0  0
  2  1  1  0
  3  2  1  0
  4  3  2  0
  5  2  1  0
  6  5  1  0
  7  6  2  0
  8  6  1  0
  9  7  1  0
 10  8  2  0
 11  9  2  0
 11 10  1  0
  2 12  1  1
 13  5  1  0
 14  5  1  0
 15  7  1  0
 16  8  1  0
 17  9  1  0
 18 10  1  0
 19 11  1  0
 20  3  1  0
 21 20  1  0
 22 21  1  0
 23 22  2  0
 24 21  1  0
 25 24  1  0
 26 25  1  0
 26 20  1  0
 21 27  1  6
 28 24  1  0
 29 24  1  0
 30 25  1  0
 31 25  1  0
 32 26  1  0
 33 26  1  0
 34 22  1  0
 35 34  1  0
 36 35  1  0
 37 36  2  0
 38 35  1  0
 39 34  1  0
 35 40  1  6
 41 38  1  0
 42 38  1  0
 43 38  1  0
 44 36  1  0
 45 44  1  0
 46 45  1  0
 47 46  1  0
 48 46  1  0
 49 48  1  0
 50 49  1  0
 51 49  1  0
 52 49  1  0
 53 45  1  0
 54 53  1  0
 45 55  1  1
 46 56  1  6
 47 57  1  6
 58 47  1  0
 59 47  1  0
 60 53  1  0
 61 60  1  0
 62 61  1  0
 63 62  2  0
 64 61  1  0
 65 64  1  0
 66 64  1  0
 67 62  1  0
 68 60  1  0
 61 69  1  6
 70 64  1  0
 71 65  1  0
 72 65  1  0
 73 65  1  0
 74 66  1  0
 75 66  1  0
 76 66  1  0
M  END
$$$$
2B1V
     RDKit          3D

  8  7  0  0  0  0  0  0  0  0999 V2000
   -7.1170    5.4810    7.7920 N   0  0  0  0  0  0  0  0  0  0  0  0
   -7.4690    4.0660    7.7880 C   0  0  2  0  0  0  0  0  0  0  0  0
   -8.5900    3.7730    6.7950 C   0  0  0  0  0  0  0  0  0  0  0  0
   -9.1370    4.6850    6.1760 O   0  0  0  0  0  0  0  0  0  0  0  0
   -7.8780    3.6130    9.1910 C   0  0  0  0  0  0  0  0  0  0  0  0
   -6.8200    3.7540   10.2860 C   0  0  0  0  0  0  0  0  0  0  0  0
   -7.4530    3.6230   11.6610 C   0  0  0  0  0  0  0  0  0  0  0  0
   -5.7060    2.7360   10.0960 C   0  0  0  0  0  0  0  0  0  0  0  0
  2  1  1  1
  3  2  1  0
  4  3  2  0
  5  2  1  0
  6  5  1  0
  7  6  1  0
  8  6  1  0
M  END
$$$$
6PET
     RDKit          3D

 26 29  0  0  0  0  0  0  0  0999 V2000
   53.8120   12.7640   56.2810 C   0  0  0  0  0  0  0  0  0  0  0  0
   53.8430   13.9870   57.1640 C   0  0  0  0  0  0  0  0  0  0  0  0
   54.9140   14.2950   57.9310 C   0  0  2  0  0  0  0  0  0  0  0  0
   54.9220   15.5500   58.7610 C   0  0  1  0  0  0  0  0  0  0  0  0
   54.0220   16.5400   58.2550 O   0  0  0  0  0  0  0  0  0  0  0  0
   52.8220   16.1790   57.7390 C   0  0  0  0  0  0  0  0  0  0  0  0
   52.6770   14.8960   57.1850 C   0  0  1  0  0  0  0  0  0  0  0  0
   51.4590   14.5360   56.6190 C   0  0  0  0  0  0  0  0  0  0  0  0
   50.3980   15.4420   56.6390 C   0  0  0  0  0  0  0  0  0  0  0  0
   50.5470   16.7040   57.1960 C   0  0  0  0  0  0  0  0  0  0  0  0
   51.7620   17.0740   57.7440 C   0  0  0  0  0  0  0  0  0  0  0  0
   49.1970   15.0890   56.1060 O   0  0  0  0  0  0  0  0  0  0  0  0
   54.5280   15.3860   60.1990 C   0  0  0  0  0  0  0  0  0  0  0  0
   55.1270   16.2270   61.1260 C   0  0  0  0  0  0  0  0  0  0  0  0
   54.7790   16.1390   62.4550 C   0  0  0  0  0  0  0  0  0  0  0  0
   53.8210   15.2110   62.8620 C   0  0  0  0  0  0  0  0  0  0  0  0
   53.2120   14.3790   61.9230 C   0  0  0  0  0  0  0  0  0  0  0  0
   53.5690   14.4710   60.5840 C   0  0  0  0  0  0  0  0  0  0  0  0
   53.2990   15.0950   64.9000 I   0  0  0  0  0  0  0  0  0  0  0  0
   56.1780   13.5420   57.9630 C   0  0  1  0  0  0  0  0  0  0  0  0
   56.8110   13.2000   56.7590 C   0  0  0  0  0  0  0  0  0  0  0  0
   58.0200   12.5380   56.7700 C   0  0  0  0  0  0  0  0  0  0  0  0
   58.6240   12.2410   57.9820 C   0  0  0  0  0  0  0  0  0  0  0  0
   58.0150   12.6030   59.1740 C   0  0  0  0  0  0  0  0  0  0  0  0
   56.7990   13.2600   59.1800 C   0  0  0  0  0  0  0  0  0  0  0  0
   58.6270   12.3030   60.3440 O   0  0  0  0  0  0  0  0  0  0  0  0
  2  1  1  0
  3  2  1  6
  4  3  1  0
  5  4  1  0
  6  5  1  0
  7  6  1  0
  7  2  1  0
  7  8  1  6
  9  8  1  0
 10  9  1  0
 11  6  1  0
 11 10  1  0
 12  9  1  0
  4 13  1  1
 14 13  1  0
 15 14  1  0
 16 15  1  0
 17 16  1  0
 18 17  1  0
 18 13  1  0
 19 16  1  0
 20  3  1  0
 20 21  1  6
 22 21  1  0
 23 22  1  0
 24 23  1  0
 25 24  1  0
 25 20  1  0
 26 24  1  0
M  END
$$$$
2R6Y
     RDKit          3D

 33 37  0  0  0  0  0  0  0  0999 V2000
   12.1520   -0.5100   28.6560 C   0  0  0  0  0  0  0  0  0  0  0  0
   13.3830   -0.0040   29.0190 C   0  0  0  0  0  0  0  0  0  0  0  0
   14.4350    0.0280   28.0800 C   0  0  0  0  0  0  0  0  0  0  0  0
   14.2680   -0.4430   26.7780 C   0  0  0  0  0  0  0  0  0  0  0  0
    8.1750   -4.2560   25.9620 C   0  0  0  0  0  0  0  0  0  0  0  0
    6.0080   -3.1600   26.2430 C   0  0  0  0  0  0  0  0  0  0  0  0
   11.5270   -4.1330   24.8220 C   0  0  0  0  0  0  0  0  0  0  0  0
   10.9130   -3.3480   23.8520 C   0  0  0  0  0  0  0  0  0  0  0  0
   11.0730   -3.5860   22.5040 C   0  0  0  0  0  0  0  0  0  0  0  0
   13.0610   -5.9040   18.9130 C   0  0  0  0  0  0  0  0  0  0  0  0
   12.2090   -6.1380   16.6850 C   0  0  0  0  0  0  0  0  0  0  0  0
   12.0270   -4.2520   27.1140 O   0  0  0  0  0  0  0  0  0  0  0  0
   11.3070   -3.7800   26.2460 C   0  0  1  0  0  0  0  0  0  0  0  0
   12.3540   -5.2150   24.4220 C   0  0  0  0  0  0  0  0  0  0  0  0
   12.4960   -5.4500   23.0670 C   0  0  0  0  0  0  0  0  0  0  0  0
   11.8710   -4.6640   22.1070 C   0  0  0  0  0  0  0  0  0  0  0  0
   11.9720   -4.8700   20.7670 O   0  0  0  0  0  0  0  0  0  0  0  0
   12.7740   -6.0140   20.4290 C   0  0  0  0  0  0  0  0  0  0  0  0
   11.8240   -6.0700   18.1060 N   0  0  0  0  0  0  0  0  0  0  0  0
   10.9500   -4.8990   18.2650 C   0  0  0  0  0  0  0  0  0  0  0  0
   10.3840   -4.5120   16.8640 C   0  0  0  0  0  0  0  0  0  0  0  0
   11.0000   -5.5610   15.8950 C   0  0  0  0  0  0  0  0  0  0  0  0
   10.2560   -2.7790   26.5780 C   0  0  0  0  0  0  0  0  0  0  0  0
    8.8230   -3.0590   26.4270 C   0  0  0  0  0  0  0  0  0  0  0  0
    6.7840   -4.2440   25.8530 C   0  0  0  0  0  0  0  0  0  0  0  0
    4.6500   -3.1750   26.1640 O   0  0  0  0  0  0  0  0  0  0  0  0
    6.6170   -1.9870   26.7010 C   0  0  0  0  0  0  0  0  0  0  0  0
    7.9810   -1.9540   26.7760 C   0  0  0  0  0  0  0  0  0  0  0  0
    9.1040   -0.6720   27.3110 S   0  0  0  0  0  0  0  0  0  0  0  0
   10.6250   -1.5300   27.0440 C   0  0  1  0  0  0  0  0  0  0  0  0
   11.9670   -0.9910   27.3430 C   0  0  0  0  0  0  0  0  0  0  0  0
   13.0290   -0.9510   26.4060 C   0  0  0  0  0  0  0  0  0  0  0  0
   15.6340    0.5200   28.5000 O   0  0  0  0  0  0  0  0  0  0  0  0
  2  1  1  0
  3  2  1  0
  4  3  1  0
  8  7  1  0
  9  8  1  0
 13 12  1  6
 13  7  1  0
 14  7  1  0
 15 14  1  0
 16 15  1  0
 16  9  1  0
 17 16  1  0
 18 10  1  0
 18 17  1  0
 19 11  1  0
 19 10  1  0
 20 19  1  0
 21 20  1  0
 22 21  1  0
 22 11  1  0
 23 13  1  0
 24 23  1  0
 24  5  1  0
 25  6  1  0
 25  5  1  0
 26  6  1  0
 27  6  1  0
 28 27  1  0
 28 24  1  0
 29 28  1  0
 30 23  1  0
 30 29  1  0
 30 31  1  1
 31  1  1  0
 32  4  1  0
 32 31  1  0
 33  3  1  0
M  END
$$$$
8BWJ
     RDKit          3D

 76 77  0  0  0  0  0  0  0  0999 V2000
  -28.1940    7.9900   14.4690 N   0  0  0  0  0  0  0  0  0  0  0  0
  -27.3200    9.1570   14.3980 C   0  0  2  0  0  0  0  0  0  0  0  0
  -28.1120   10.4020   13.9880 C   0  0  0  0  0  0  0  0  0  0  0  0
  -29.1150   10.3060   13.2790 O   0  0  0  0  0  0  0  0  0  0  0  0
  -26.1600    8.9060   13.4100 C   0  0  0  0  0  0  0  0  0  0  0  0
  -26.5790    8.2320   12.1230 C   0  0  0  0  0  0  0  0  0  0  0  0
  -27.4820    8.8400   11.2580 C   0  0  0  0  0  0  0  0  0  0  0  0
  -26.0730    6.9820   11.7840 C   0  0  0  0  0  0  0  0  0  0  0  0
  -27.8700    8.2130   10.0800 C   0  0  0  0  0  0  0  0  0  0  0  0
  -26.4630    6.3500   10.6070 C   0  0  0  0  0  0  0  0  0  0  0  0
  -27.3570    6.9660    9.7570 C   0  0  0  0  0  0  0  0  0  0  0  0
  -26.9310    9.3220   15.2710 H   0  0  0  0  0  0  0  0  0  0  0  0
  -25.7590    9.7580   13.1790 H   0  0  0  0  0  0  0  0  0  0  0  0
  -25.5040    8.3360   13.8410 H   0  0  0  0  0  0  0  0  0  0  0  0
  -27.8300    9.6760   11.4700 H   0  0  0  0  0  0  0  0  0  0  0  0
  -25.4680    6.5620   12.3510 H   0  0  0  0  0  0  0  0  0  0  0  0
  -28.4740    8.6300    9.5080 H   0  0  0  0  0  0  0  0  0  0  0  0
  -26.1190    5.5130   10.3930 H   0  0  0  0  0  0  0  0  0  0  0  0
  -27.6150    6.5460    8.9680 H   0  0  0  0  0  0  0  0  0  0  0  0
  -27.6790   11.5710   14.4410 N   0  0  0  0  0  0  0  0  0  0  0  0
  -28.2250   12.8130   13.8900 C   0  0  2  0  0  0  0  0  0  0  0  0
  -27.6370   13.1050   12.5180 C   0  0  0  0  0  0  0  0  0  0  0  0
  -26.5770   12.6040   12.1380 O   0  0  0  0  0  0  0  0  0  0  0  0
  -27.8050   13.8690   14.9140 C   0  0  0  0  0  0  0  0  0  0  0  0
  -26.5460   13.3350   15.5150 C   0  0  0  0  0  0  0  0  0  0  0  0
  -26.6810   11.8280   15.5030 C   0  0  0  0  0  0  0  0  0  0  0  0
  -29.1930   12.7860   13.8360 H   0  0  0  0  0  0  0  0  0  0  0  0
  -27.6470   14.7170   14.4710 H   0  0  0  0  0  0  0  0  0  0  0  0
  -28.4960   13.9710   15.5870 H   0  0  0  0  0  0  0  0  0  0  0  0
  -25.7860   13.6150   14.9820 H   0  0  0  0  0  0  0  0  0  0  0  0
  -26.4530   13.6630   16.4230 H   0  0  0  0  0  0  0  0  0  0  0  0
  -25.8340   11.4090   15.2870 H   0  0  0  0  0  0  0  0  0  0  0  0
  -27.0010   11.5050   16.3600 H   0  0  0  0  0  0  0  0  0  0  0  0
  -28.3500   13.9370   11.7620 N   0  0  0  0  0  0  0  0  0  0  0  0
  -27.9210   14.2860   10.4340 C   0  0  2  0  0  0  0  0  0  0  0  0
  -26.8080   15.3430   10.3860 C   0  0  0  0  0  0  0  0  0  0  0  0
  -26.8820   16.3470   11.0930 O   0  0  0  0  0  0  0  0  0  0  0  0
  -29.0990   14.7940    9.6180 C   0  0  0  0  0  0  0  0  0  0  0  0
  -29.0860   14.3090   12.0060 H   0  0  0  0  0  0  0  0  0  0  0  0
  -27.5590   13.4730   10.0470 H   0  0  0  0  0  0  0  0  0  0  0  0
  -28.7910   15.0240    8.7270 H   0  0  0  0  0  0  0  0  0  0  0  0
  -29.7720   14.0980    9.5670 H   0  0  0  0  0  0  0  0  0  0  0  0
  -29.4680   15.5790   10.0520 H   0  0  0  0  0  0  0  0  0  0  0  0
  -25.8000   15.0840    9.5480 N   0  0  0  0  0  0  0  0  0  0  0  0
  -24.7300   16.0230    9.2180 C   0  0  1  0  0  0  0  0  0  0  0  0
  -23.3980   15.6670    9.9740 C   0  0  1  0  0  0  0  0  0  0  0  0
  -23.5740   15.8620   11.4800 C   0  0  2  0  0  0  0  0  0  0  0  0
  -23.1400   14.3210    9.5970 O   0  0  0  0  0  0  0  0  0  0  0  0
  -21.6760   13.7430    9.9560 P   0  0  0  0  0  0  0  0  0  0  0  0
  -21.6010   12.4520    9.0080 O   0  0  0  0  0  0  0  0  0  0  0  0
  -21.6730   13.3620   11.3820 O   0  0  0  0  0  0  0  0  0  0  0  0
  -20.5810   14.7940    9.5700 O   0  0  0  0  0  0  0  0  0  0  0  0
  -24.5370   16.0090    7.7110 C   0  0  0  0  0  0  0  0  0  0  0  0
  -24.9190   15.0420    7.0270 O   0  0  0  0  0  0  0  0  0  0  0  0
  -24.9630   16.9280    9.5130 H   0  0  0  0  0  0  0  0  0  0  0  0
  -22.5550   16.3080    9.7140 H   0  0  0  0  0  0  0  0  0  0  0  0
  -22.6360   15.6350   11.9880 H   0  0  0  0  0  0  0  0  0  0  0  0
  -24.3540   15.1940   11.8440 H   0  0  0  0  0  0  0  0  0  0  0  0
  -23.8560   16.8950   11.6830 H   0  0  0  0  0  0  0  0  0  0  0  0
  -23.9920   17.0950    7.1770 N   0  0  0  0  0  0  0  0  0  0  0  0
  -23.7360   17.1870    5.7460 C   0  0  2  0  0  0  0  0  0  0  0  0
  -22.3110   17.5840    5.4350 C   0  0  0  0  0  0  0  0  0  0  0  0
  -21.5090   17.9580    6.3160 O   0  0  0  0  0  0  0  0  0  0  0  0
  -24.6870   18.1970    5.0590 C   0  0  0  0  0  0  0  0  0  0  0  0
  -26.1020   17.7880    5.2400 C   0  0  0  0  0  0  0  0  0  0  0  0
  -24.4280   19.6210    5.5730 C   0  0  0  0  0  0  0  0  0  0  0  0
  -21.9390   17.5460    4.2420 O   0  0  0  0  0  0  0  0  0  0  0  0
  -23.7620   17.7930    7.6230 H   0  0  0  0  0  0  0  0  0  0  0  0
  -23.8890   16.2980    5.3910 H   0  0  0  0  0  0  0  0  0  0  0  0
  -24.5120   18.2010    4.1050 H   0  0  0  0  0  0  0  0  0  0  0  0
  -26.1280   16.9050    5.6400 H   0  0  0  0  0  0  0  0  0  0  0  0
  -26.5440   18.4270    5.8220 H   0  0  0  0  0  0  0  0  0  0  0  0
  -26.5400   17.7720    4.3750 H   0  0  0  0  0  0  0  0  0  0  0  0
  -25.1450   20.2010    5.2710 H   0  0  0  0  0  0  0  0  0  0  0  0
  -24.4000   19.6070    6.5420 H   0  0  0  0  0  0  0  0  0  0  0  0
  -23.5800   19.9340    5.2210 H   0  0  0  0  0  0  0  0  0  0  0  0
  2  1  1  0
  3  2  1  0
  4  3  2  0
  5  2  1  0
  6  5  1  0
  7  6  2  0
  8  6  1  0
  9  7  1  0
 10  8  2  0
 11  9  2  0
 11 10  1  0
  2 12  1  1
 13  5  1  0
 14  5  1  0
 15  7  1  0
 16  8  1  0
 17  9  1  0
 18 10  1  0
 19 11  1  0
 20  3  1  0
 21 20  1  0
 22 21  1  0
 23 22  2  0
 24 21  1  0
 25 24  1  0
 26 20  1  0
 26 25  1  0
 21 27  1  6
 28 24  1  0
 29 24  1  0
 30 25  1  0
 31 25  1  0
 32 26  1  0
 33 26  1  0
 34 22  1  0
 35 34  1  0
 36 35  1  0
 37 36  2  0
 38 35  1  0
 39 34  1  0
 35 40  1  6
 41 38  1  0
 42 38  1  0
 43 38  1  0
 44 36  1  0
 45 44  1  0
 46 45  1  0
 47 46  1  0
 48 46  1  0
 49 48  1  0
 50 49  1  0
 51 49  1  0
 52 49  1  0
 53 45  1  0
 54 53  1  0
 45 55  1  1
 46 56  1  6
 47 57  1  1
 58 47  1  0
 59 47  1  0
 60 53  1  0
 61 60  1  0
 62 61  1  0
 63 62  2  0
 64 61  1  0
 65 64  1  0
 66 64  1  0
 67 62  1  0
 68 60  1  0
 61 69  1  6
 70 64  1  0
 71 65  1  0
 72 65  1  0
 73 65  1  0
 74 66  1  0
 75 66  1  0
 76 66  1  0
M  END
$$$$
2YJA
     RDKit          3D

 20 23  0  0  0  0  0  0  0  0999 V2000
   21.6660   12.0110    8.1270 C   0  0  0  0  0  0  0  0  0  0  0  0
   21.2280   13.2170    7.4460 C   0  0  0  0  0  0  0  0  0  0  0  0
   21.6680   14.5230    7.9350 C   0  0  0  0  0  0  0  0  0  0  0  0
   21.2780   15.7080    7.2820 O   0  0  0  0  0  0  0  0  0  0  0  0
   22.5070   14.6160    9.0660 C   0  0  0  0  0  0  0  0  0  0  0  0
   22.9080   13.4580    9.7710 C   0  0  0  0  0  0  0  0  0  0  0  0
   23.7680   13.6690   11.0250 C   0  0  0  0  0  0  0  0  0  0  0  0
   24.1660   12.3960   11.8140 C   0  0  0  0  0  0  0  0  0  0  0  0
   24.2820   11.1180   10.9490 C   0  0  2  0  0  0  0  0  0  0  0  0
   22.9940   10.8470   10.0560 C   0  0  1  0  0  0  0  0  0  0  0  0
   22.5080   12.1000    9.2940 C   0  0  0  0  0  0  0  0  0  0  0  0
   23.4180    9.6590    9.1060 C   0  0  0  0  0  0  0  0  0  0  0  0
   23.7860    8.3720    9.9150 C   0  0  0  0  0  0  0  0  0  0  0  0
   24.8610    8.6530   10.9760 C   0  0  1  0  0  0  0  0  0  0  0  0
   24.4390    9.8710   11.8890 C   0  0  1  0  0  0  0  0  0  0  0  0
   25.5370    9.8870   12.9650 C   0  0  0  0  0  0  0  0  0  0  0  0
   25.8540    8.3640   13.1840 C   0  0  0  0  0  0  0  0  0  0  0  0
   25.0260    7.6060   12.0970 C   0  0  2  0  0  0  0  0  0  0  0  0
   25.8320    6.4870   11.7490 O   0  0  0  0  0  0  0  0  0  0  0  0
   26.2390    8.9520   10.2480 C   0  0  0  0  0  0  0  0  0  0  0  0
  2  1  1  0
  3  2  1  0
  4  3  1  0
  5  3  1  0
  6  5  1  0
  7  6  1  0
  8  7  1  0
  9  8  1  1
 10  9  1  0
 11  1  1  0
 11 10  1  0
 11  6  1  0
 10 12  1  6
 13 12  1  0
 14 13  1  0
 15 14  1  0
 15  9  1  0
 15 16  1  1
 17 16  1  0
 18 17  1  0
 18 14  1  0
 18 19  1  6
 14 20  1  6
M  END
$$$$
1UOM
     RDKit          3D

 32 36  0  0  0  0  0  0  0  0999 V2000
   -3.1030   53.4940   19.4140 C   0  0  0  0  0  0  0  0  0  0  0  0
   -1.9600   53.8010   18.4030 C   0  0  0  0  0  0  0  0  0  0  0  0
   -2.5510   54.4550   17.1200 C   0  0  0  0  0  0  0  0  0  0  0  0
   -3.9320   54.7120   19.7410 N   0  0  0  0  0  0  0  0  0  0  0  0
   -3.3140   55.7660   17.5060 C   0  0  0  0  0  0  0  0  0  0  0  0
   -4.4500   55.4410   18.5200 C   0  0  0  0  0  0  0  0  0  0  0  0
   -5.0190   54.3990   20.7130 C   0  0  0  0  0  0  0  0  0  0  0  0
   -4.6090   54.3590   22.2140 C   0  0  0  0  0  0  0  0  0  0  0  0
   -3.7250   53.2370   22.4260 O   0  0  0  0  0  0  0  0  0  0  0  0
   -3.1760   52.8610   23.6760 C   0  0  0  0  0  0  0  0  0  0  0  0
   -3.4350   53.5470   24.9120 C   0  0  0  0  0  0  0  0  0  0  0  0
   -2.8460   53.0890   26.1300 C   0  0  0  0  0  0  0  0  0  0  0  0
   -1.9890   51.9450   26.1420 C   0  0  0  0  0  0  0  0  0  0  0  0
   -1.7340   51.2670   24.9020 C   0  0  0  0  0  0  0  0  0  0  0  0
   -2.3210   51.7240   23.6980 C   0  0  0  0  0  0  0  0  0  0  0  0
   -1.3290   51.4190   27.4700 C   0  0  1  0  0  0  0  0  0  0  0  0
   -1.8570   50.0460   27.8620 N   0  0  0  0  0  0  0  0  0  0  0  0
   -0.9350   49.0100   28.4040 C   0  0  0  0  0  0  0  0  0  0  0  0
    0.4420   48.9400   27.6670 C   0  0  0  0  0  0  0  0  0  0  0  0
    1.0320   50.3300   27.3360 C   0  0  0  0  0  0  0  0  0  0  0  0
    0.2030   51.4910   27.2360 C   0  0  0  0  0  0  0  0  0  0  0  0
    0.8050   52.7540   26.9090 C   0  0  0  0  0  0  0  0  0  0  0  0
    2.2040   52.8580   26.6870 C   0  0  0  0  0  0  0  0  0  0  0  0
    3.0240   51.7120   26.7890 C   0  0  0  0  0  0  0  0  0  0  0  0
    2.4340   50.4520   27.1110 C   0  0  0  0  0  0  0  0  0  0  0  0
    4.4020   51.7840   26.5760 O   0  0  0  0  0  0  0  0  0  0  0  0
   -3.2130   49.7890   27.9000 C   0  0  0  0  0  0  0  0  0  0  0  0
   -3.9470   50.1380   29.0730 C   0  0  0  0  0  0  0  0  0  0  0  0
   -5.3410   49.8980   29.1540 C   0  0  0  0  0  0  0  0  0  0  0  0
   -6.0260   49.3020   28.0590 C   0  0  0  0  0  0  0  0  0  0  0  0
   -5.3110   48.9420   26.8840 C   0  0  0  0  0  0  0  0  0  0  0  0
   -3.9130   49.1800   26.8020 C   0  0  0  0  0  0  0  0  0  0  0  0
  2  1  1  0
  3  2  1  0
  4  1  1  0
  5  3  1  0
  6  5  1  0
  6  4  1  0
  7  4  1  0
  8  7  1  0
  9  8  1  0
 10  9  1  0
 11 10  1  0
 12 11  1  0
 13 12  1  0
 14 13  1  0
 15 14  1  0
 15 10  1  0
 16 13  1  6
 17 16  1  0
 18 17  1  0
 19 18  1  0
 20 19  1  0
 21 20  1  0
 21 16  1  0
 22 21  1  0
 23 22  1  0
 24 23  1  0
 25 24  1  0
 25 20  1  0
 26 24  1  0
 27 17  1  0
 28 27  1  0
 29 28  1  0
 30 29  1  0
 31 30  1  0
 32 31  1  0
 32 27  1  0
M  END
$$$$
6CHZ
     RDKit          3D

 37 40  0  0  0  0  0  0  0  0999 V2000
  -30.9690    0.2610  -29.2810 C   0  0  0  0  0  0  0  0  0  0  0  0
  -33.1500   -8.5060  -15.9070 N   0  0  0  0  0  0  0  0  0  0  0  0
  -31.6420   -0.1520  -27.9710 C   0  0  2  0  0  0  0  0  0  0  0  0
  -25.3460   -1.7420  -26.8520 N   0  0  0  0  0  0  0  0  0  0  0  0
  -30.9120   -0.9880  -26.9650 C   0  0  0  0  0  0  0  0  0  0  0  0
  -31.5760   -1.5710  -25.8210 C   0  0  0  0  0  0  0  0  0  0  0  0
  -32.7160   -2.3370  -26.0130 C   0  0  0  0  0  0  0  0  0  0  0  0
  -32.8540   -6.2680  -16.5060 O   0  0  0  0  0  0  0  0  0  0  0  0
  -33.3460   -2.9410  -24.9530 C   0  0  0  0  0  0  0  0  0  0  0  0
  -32.9310   -2.8280  -23.6060 C   0  0  0  0  0  0  0  0  0  0  0  0
  -33.9680   -2.9120  -21.3190 C   0  0  0  0  0  0  0  0  0  0  0  0
  -33.8800   -3.9710  -20.2010 C   0  0  0  0  0  0  0  0  0  0  0  0
  -34.9220   -6.0160  -19.2570 C   0  0  0  0  0  0  0  0  0  0  0  0
  -35.3530   -5.8770  -17.7700 C   0  0  0  0  0  0  0  0  0  0  0  0
  -35.0490   -7.1810  -16.9630 C   0  0  0  0  0  0  0  0  0  0  0  0
  -33.5720   -7.2800  -16.4390 C   0  0  0  0  0  0  0  0  0  0  0  0
  -31.7570   -8.6700  -15.4180 C   0  0  0  0  0  0  0  0  0  0  0  0
  -34.0520   -9.6780  -15.8450 C   0  0  0  0  0  0  0  0  0  0  0  0
  -35.1130   -4.7670  -20.0770 N   0  0  0  0  0  0  0  0  0  0  0  0
  -33.6280   -3.4380  -22.6150 O   0  0  0  0  0  0  0  0  0  0  0  0
  -31.8080   -2.0340  -23.3610 C   0  0  0  0  0  0  0  0  0  0  0  0
  -31.1930   -1.4390  -24.4910 C   0  0  0  0  0  0  0  0  0  0  0  0
  -30.6370    1.7650  -29.3290 C   0  0  0  0  0  0  0  0  0  0  0  0
  -32.9980    0.2130  -27.8490 C   0  0  1  0  0  0  0  0  0  0  0  0
  -33.3650    0.9360  -26.7110 C   0  0  0  0  0  0  0  0  0  0  0  0
  -34.6900    1.3610  -26.5670 C   0  0  0  0  0  0  0  0  0  0  0  0
  -35.6750    1.1290  -27.5410 C   0  0  0  0  0  0  0  0  0  0  0  0
  -35.3250    0.4110  -28.6720 C   0  0  0  0  0  0  0  0  0  0  0  0
  -33.9780   -0.0060  -28.8240 C   0  0  0  0  0  0  0  0  0  0  0  0
  -29.5050   -1.2350  -27.0340 C   0  0  1  0  0  0  0  0  0  0  0  0
  -28.5370   -0.2710  -27.2210 C   0  0  0  0  0  0  0  0  0  0  0  0
  -27.2280   -0.5700  -27.2140 C   0  0  1  0  0  0  0  0  0  0  0  0
  -26.1930    0.2200  -27.3860 C   0  0  0  0  0  0  0  0  0  0  0  0
  -25.0570   -0.4430  -27.2330 N   0  0  0  0  0  0  0  0  0  0  0  0
  -26.7140   -1.8010  -26.8750 C   0  0  0  0  0  0  0  0  0  0  0  0
  -27.6120   -2.7700  -26.6370 C   0  0  0  0  0  0  0  0  0  0  0  0
  -28.9750   -2.4980  -26.6660 C   0  0  0  0  0  0  0  0  0  0  0  0
  3  1  1  6
  5  3  1  0
  6  5  1  0
  7  6  1  0
  9  7  1  0
 10  9  1  0
 12 11  1  0
 14 13  1  0
 15 14  1  0
 16 15  1  0
 16  8  1  0
 16  2  1  0
 17  2  1  0
 18  2  1  0
 19 13  1  0
 19 12  1  0
 20 10  1  0
 20 11  1  0
 21 10  1  0
 22 21  1  0
 22  6  1  0
 23  1  1  0
 24  3  1  0
 24 25  1  6
 26 25  1  0
 27 26  1  0
 28 27  1  0
 29 28  1  0
 29 24  1  0
 30  5  1  1
 31 30  1  0
 32 31  1  1
 33 32  1  0
 34 33  1  0
 34  4  1  0
 35 32  1  0
 35  4  1  0
 36 35  1  0
 37 36  1  0
 37 30  1  0
M  END
$$$$
2QH6
     RDKit          3D

 31 34  0  0  0  0  0  0  0  0999 V2000
  -16.0730    3.9730   33.6620 C   0  0  0  0  0  0  0  0  0  0  0  0
  -17.2540    3.8790   34.4220 C   0  0  0  0  0  0  0  0  0  0  0  0
  -17.1130    3.6530   35.7880 C   0  0  0  0  0  0  0  0  0  0  0  0
  -18.1940    3.4970   36.5770 O   0  0  0  0  0  0  0  0  0  0  0  0
  -15.8600    3.5390   36.3760 C   0  0  0  0  0  0  0  0  0  0  0  0
  -14.6990    3.6560   35.6230 C   0  0  0  0  0  0  0  0  0  0  0  0
  -14.8030    3.8830   34.2630 C   0  0  0  0  0  0  0  0  0  0  0  0
  -13.6380    3.9870   33.4980 C   0  0  2  0  0  0  0  0  0  0  0  0
  -13.4640    4.5750   32.0950 C   0  0  2  0  0  0  0  0  0  0  0  0
  -12.5590    3.4780   31.6400 O   0  0  0  0  0  0  0  0  0  0  0  0
  -12.5480    5.7600   31.7890 C   0  0  1  0  0  0  0  0  0  0  0  0
  -12.6430    6.6620   32.9420 C   0  0  0  0  0  0  0  0  0  0  0  0
  -12.2660    6.2250   34.0400 O   0  0  0  0  0  0  0  0  0  0  0  0
  -13.1080    7.9340   32.7610 O   0  0  0  0  0  0  0  0  0  0  0  0
  -12.7630    8.4750   31.5050 C   0  0  0  0  0  0  0  0  0  0  0  0
  -13.1080    9.8940   32.0030 C   0  0  0  0  0  0  0  0  0  0  0  0
  -11.1350    5.0980   31.7920 C   0  0  1  0  0  0  0  0  0  0  0  0
   -9.9520    6.0270   32.2700 C   0  0  2  0  0  0  0  0  0  0  0  0
  -10.1730    7.1660   32.6550 O   0  0  0  0  0  0  0  0  0  0  0  0
   -8.6030    5.7210   32.2390 O   0  0  0  0  0  0  0  0  0  0  0  0
   -8.3160    4.3640   32.6660 C   0  0  0  0  0  0  0  0  0  0  0  0
   -8.9470    3.3810   31.6630 C   0  0  0  0  0  0  0  0  0  0  0  0
  -11.4580    3.7470   32.5370 C   0  0  1  0  0  0  0  0  0  0  0  0
  -12.3680    3.4740   33.7830 C   0  0  2  0  0  0  0  0  0  0  0  0
  -11.9400    2.6520   34.8160 C   0  0  2  0  0  0  0  0  0  0  0  0
  -10.9410    2.9990   35.7150 C   0  0  0  0  0  0  0  0  0  0  0  0
  -10.4770    2.0760   36.6680 C   0  0  0  0  0  0  0  0  0  0  0  0
  -11.0180    0.7990   36.7040 C   0  0  0  0  0  0  0  0  0  0  0  0
  -10.5710   -0.0600   37.6360 O   0  0  0  0  0  0  0  0  0  0  0  0
  -12.0050    0.4200   35.7810 C   0  0  0  0  0  0  0  0  0  0  0  0
  -12.4450    1.3430   34.8350 C   0  0  0  0  0  0  0  0  0  0  0  0
  2  1  1  0
  3  2  1  0
  4  3  1  0
  5  3  1  0
  6  5  1  0
  7  6  1  0
  7  1  1  0
  8  7  1  6
  9  8  1  0
  9 10  1  6
 11  9  1  0
 11 12  1  1
 13 12  1  0
 14 12  1  0
 15 14  1  0
 16 15  1  0
 17 11  1  0
 17 18  1  1
 18 19  1  6
 20 18  1  0
 21 20  1  0
 22 21  1  0
 23 17  1  0
 23 10  1  6
 24 23  1  0
 24  8  1  0
 24 25  1  6
 25 26  1  6
 27 26  1  0
 28 27  1  0
 29 28  1  0
 30 28  1  0
 31 30  1  0
 31 25  1  0
M  END
$$$$
9I75
     RDKit          3D

 42 43  0  0  0  0  0  0  0  0999 V2000
  -28.2730   -7.9920  -14.7170 N   0  0  0  0  0  0  0  0  0  0  0  0
  -27.3620   -9.1350  -14.6730 C   0  0  2  0  0  0  0  0  0  0  0  0
  -28.0370  -10.3560  -14.0500 C   0  0  0  0  0  0  0  0  0  0  0  0
  -28.9050  -10.2270  -13.1890 O   0  0  0  0  0  0  0  0  0  0  0  0
  -26.0600   -8.7910  -13.9120 C   0  0  0  0  0  0  0  0  0  0  0  0
  -26.2230   -8.0080  -12.6290 C   0  0  0  0  0  0  0  0  0  0  0  0
  -26.4090   -6.6340  -12.6520 C   0  0  0  0  0  0  0  0  0  0  0  0
  -26.1920   -8.6460  -11.3990 C   0  0  0  0  0  0  0  0  0  0  0  0
  -26.5570   -5.9150  -11.4700 C   0  0  0  0  0  0  0  0  0  0  0  0
  -26.3410   -7.9230  -10.2190 C   0  0  0  0  0  0  0  0  0  0  0  0
  -26.5230   -6.5630  -10.2620 C   0  0  0  0  0  0  0  0  0  0  0  0
  -27.6740  -11.5860  -14.4750 N   0  0  0  0  0  0  0  0  0  0  0  0
  -28.2460  -12.7880  -13.8860 C   0  0  2  0  0  0  0  0  0  0  0  0
  -27.6650  -13.1120  -12.5130 C   0  0  0  0  0  0  0  0  0  0  0  0
  -26.6020  -12.6150  -12.1450 O   0  0  0  0  0  0  0  0  0  0  0  0
  -27.9070  -13.8520  -14.9210 C   0  0  0  0  0  0  0  0  0  0  0  0
  -26.6020  -13.4050  -15.4810 C   0  0  0  0  0  0  0  0  0  0  0  0
  -26.6880  -11.8890  -15.5260 C   0  0  0  0  0  0  0  0  0  0  0  0
  -28.3860  -13.9450  -11.7630 N   0  0  0  0  0  0  0  0  0  0  0  0
  -27.9970  -14.3180  -10.4170 C   0  0  2  0  0  0  0  0  0  0  0  0
  -26.8660  -15.3420  -10.4040 C   0  0  0  0  0  0  0  0  0  0  0  0
  -26.9140  -16.3280  -11.1320 O   0  0  0  0  0  0  0  0  0  0  0  0
  -29.1940  -14.8890   -9.6750 C   0  0  0  0  0  0  0  0  0  0  0  0
  -25.8670  -15.0820   -9.5550 N   0  0  0  0  0  0  0  0  0  0  0  0
  -24.8230  -16.0310   -9.2220 C   0  0  1  0  0  0  0  0  0  0  0  0
  -23.5270  -15.7150   -9.9780 C   0  0  1  0  0  0  0  0  0  0  0  0
  -23.6890  -15.8620  -11.4740 C   0  0  0  0  0  0  0  0  0  0  0  0
  -23.1810  -14.3280   -9.6460 O   0  0  0  0  0  0  0  0  0  0  0  0
  -21.7460  -13.6810   -9.9960 P   0  0  0  0  0  0  0  0  0  0  0  0
  -21.7390  -13.3100  -11.4660 O   0  0  0  0  0  0  0  0  0  0  0  0
  -21.6780  -12.4770   -9.0830 O   0  0  0  0  0  0  0  0  0  0  0  0
  -20.6990  -14.7260   -9.6800 O   0  0  0  0  0  0  0  0  0  0  0  0
  -24.6090  -15.9980   -7.7150 C   0  0  0  0  0  0  0  0  0  0  0  0
  -25.0090  -15.0410   -7.0560 O   0  0  0  0  0  0  0  0  0  0  0  0
  -23.9860  -17.0570   -7.1880 N   0  0  0  0  0  0  0  0  0  0  0  0
  -23.6980  -17.1470   -5.7660 C   0  0  2  0  0  0  0  0  0  0  0  0
  -22.2300  -17.4290   -5.4670 C   0  0  0  0  0  0  0  0  0  0  0  0
  -21.4520  -17.8350   -6.3480 O   0  0  0  0  0  0  0  0  0  0  0  0
  -24.5710  -18.2060   -5.0800 C   0  0  0  0  0  0  0  0  0  0  0  0
  -26.0450  -17.8510   -5.1810 C   0  0  0  0  0  0  0  0  0  0  0  0
  -24.2970  -19.6060   -5.6280 C   0  0  0  0  0  0  0  0  0  0  0  0
  -21.8280  -17.2780   -4.3050 O   0  0  0  0  0  0  0  0  0  0  0  0
  2  1  1  1
  3  2  1  0
  4  3  2  0
  5  2  1  0
  6  5  1  0
  7  6  2  0
  8  6  1  0
  9  7  1  0
 10  8  2  0
 11  9  2  0
 11 10  1  0
 12  3  1  0
 13 12  1  0
 13 14  1  1
 15 14  2  0
 16 13  1  0
 17 16  1  0
 18 12  1  0
 18 17  1  0
 19 14  1  0
 20 19  1  0
 21 20  1  0
 22 21  2  0
 20 23  1  6
 24 21  1  0
 25 24  1  1
 26 25  1  0
 26 27  1  6
 28 26  1  0
 29 28  1  0
 30 29  1  0
 31 29  1  0
 32 29  1  0
 33 25  1  0
 34 33  1  0
 35 33  1  0
 36 35  1  6
 37 36  1  0
 38 37  2  0
 39 36  1  0
 40 39  1  0
 41 39  1  0
 42 37  1  0
M  END
$$$$
4PPP
     RDKit          3D

 52 52  0  0  0  0  0  0  0  0999 V2000
   29.1320   17.7650    6.1650 N   0  0  0  0  0  0  0  0  0  0  0  0
   28.7070   16.3900    5.9310 C   0  0  2  0  0  0  0  0  0  0  0  0
   28.3060   16.1800    4.4750 C   0  0  0  0  0  0  0  0  0  0  0  0
   27.8490   17.1070    3.8070 O   0  0  0  0  0  0  0  0  0  0  0  0
   27.5460   16.0220    6.8580 C   0  0  0  0  0  0  0  0  0  0  0  0
   28.4800   14.9540    3.9910 N   0  0  0  0  0  0  0  0  0  0  0  0
   28.1550   14.6120    2.6100 C   0  0  2  0  0  0  0  0  0  0  0  0
   26.6550   14.7690    2.3410 C   0  0  0  0  0  0  0  0  0  0  0  0
   26.2450   15.1060    1.2270 O   0  0  0  0  0  0  0  0  0  0  0  0
   28.6200   13.1720    2.2800 C   0  0  2  0  0  0  0  0  0  0  0  0
   28.0340   12.6850    0.9530 C   0  0  0  0  0  0  0  0  0  0  0  0
   28.2580   12.2200    3.4070 C   0  0  0  0  0  0  0  0  0  0  0  0
   28.4810   11.2940    0.5650 C   0  0  0  0  0  0  0  0  0  0  0  0
   25.8450   14.5530    3.3740 N   0  0  0  0  0  0  0  0  0  0  0  0
   24.3970   14.7170    3.2680 C   0  0  2  0  0  0  0  0  0  0  0  0
   24.0260   16.1360    2.8390 C   0  0  0  0  0  0  0  0  0  0  0  0
   23.0530   16.3380    2.1110 O   0  0  0  0  0  0  0  0  0  0  0  0
   23.7220   14.3700    4.5970 C   0  0  0  0  0  0  0  0  0  0  0  0
   22.2020   14.5410    4.6790 C   0  0  0  0  0  0  0  0  0  0  0  0
   21.5050   13.7980    3.5500 C   0  0  0  0  0  0  0  0  0  0  0  0
   21.6840   14.0700    6.0300 C   0  0  0  0  0  0  0  0  0  0  0  0
   24.8080   17.1140    3.2880 N   0  0  0  0  0  0  0  0  0  0  0  0
   24.6130   18.5020    2.8820 C   0  0  2  0  0  0  0  0  0  0  0  0
   24.7760   18.6600    1.3740 C   0  0  0  0  0  0  0  0  0  0  0  0
   23.9360   19.2650    0.7050 O   0  0  0  0  0  0  0  0  0  0  0  0
   25.5990   19.4240    3.6030 C   0  0  0  0  0  0  0  0  0  0  0  0
   25.4390   19.4480    5.0930 C   0  0  0  0  0  0  0  0  0  0  0  0
   24.2150   19.6220    5.7050 N   0  0  0  0  0  0  0  0  0  0  0  0
   26.3460   19.3370    6.0870 C   0  0  0  0  0  0  0  0  0  0  0  0
   24.3790   19.6090    7.0160 C   0  0  0  0  0  0  0  0  0  0  0  0
   25.6610   19.4370    7.2770 N   0  0  0  0  0  0  0  0  0  0  0  0
   25.8660   18.1060    0.8510 N   0  0  0  0  0  0  0  0  0  0  0  0
   26.2210   18.2430   -0.5580 C   0  0  2  0  0  0  0  0  0  0  0  0
   25.1720   17.6380   -1.4850 C   0  0  0  0  0  0  0  0  0  0  0  0
   24.8480   18.2130   -2.5250 O   0  0  0  0  0  0  0  0  0  0  0  0
   27.5820   17.5950   -0.8230 C   0  0  0  0  0  0  0  0  0  0  0  0
   24.6500   16.4760   -1.1080 N   0  0  0  0  0  0  0  0  0  0  0  0
   23.6100   15.8180   -1.8890 C   0  0  2  0  0  0  0  0  0  0  0  0
   22.3400   16.6610   -1.9060 C   0  0  0  0  0  0  0  0  0  0  0  0
   21.6370   16.7260   -2.9150 O   0  0  0  0  0  0  0  0  0  0  0  0
   23.3150   14.4220   -1.3340 C   0  0  0  0  0  0  0  0  0  0  0  0
   24.1110   13.2530   -1.9210 C   0  0  0  0  0  0  0  0  0  0  0  0
   23.8580   13.1340   -3.4160 C   0  0  0  0  0  0  0  0  0  0  0  0
   25.5990   13.3920   -1.6370 C   0  0  0  0  0  0  0  0  0  0  0  0
   22.0550   17.3090   -0.7810 N   0  0  0  0  0  0  0  0  0  0  0  0
   20.9080   18.2020   -0.6800 C   0  0  2  0  0  0  0  0  0  0  0  0
   21.1570   19.5000   -1.4410 C   0  0  0  0  0  0  0  0  0  0  0  0
   20.2960   20.3770   -1.4890 O   0  0  0  0  0  0  0  0  0  0  0  0
   20.5890   18.5010    0.7860 C   0  0  0  0  0  0  0  0  0  0  0  0
   19.9210   17.3760    1.5770 C   0  0  0  0  0  0  0  0  0  0  0  0
   19.9400   17.6780    3.0660 C   0  0  0  0  0  0  0  0  0  0  0  0
   18.4960   17.1680    1.0930 C   0  0  0  0  0  0  0  0  0  0  0  0
  2  1  1  0
  3  2  1  0
  4  3  2  0
  2  5  1  1
  6  3  1  0
  7  6  1  1
  8  7  1  0
  9  8  2  0
 10  7  1  0
 11 10  1  0
 10 12  1  1
 13 11  1  0
 14  8  1  0
 15 14  1  0
 16 15  1  0
 17 16  2  0
 15 18  1  1
 19 18  1  0
 20 19  1  0
 21 19  1  0
 22 16  1  0
 23 22  1  0
 24 23  1  0
 25 24  2  0
 23 26  1  1
 27 26  1  0
 28 27  1  0
 29 27  2  0
 30 28  2  0
 31 30  1  0
 31 29  1  0
 32 24  1  0
 33 32  1  0
 34 33  1  0
 35 34  2  0
 33 36  1  1
 37 34  1  0
 38 37  1  0
 39 38  1  0
 40 39  2  0
 38 41  1  1
 42 41  1  0
 43 42  1  0
 44 42  1  0
 45 39  1  0
 46 45  1  0
 47 46  1  0
 48 47  2  0
 46 49  1  1
 50 49  1  0
 51 50  1  0
 52 50  1  0
M  END
$$$$
5TM7
     RDKit          3D

 72 72  0  0  0  0  0  0  0  0999 V2000
   32.1840   19.2280    8.8570 N   0  0  0  0  0  0  0  0  0  0  0  0
   32.1300   18.9130    7.4340 C   0  0  2  0  0  0  0  0  0  0  0  0
   31.5680   17.5150    7.2060 C   0  0  0  0  0  0  0  0  0  0  0  0
   32.1780   16.5190    7.5950 O   0  0  0  0  0  0  0  0  0  0  0  0
   33.5200   19.0310    6.8050 C   0  0  0  0  0  0  0  0  0  0  0  0
   30.4000   17.4460    6.5720 N   0  0  0  0  0  0  0  0  0  0  0  0
   29.7430   16.1800    6.2850 C   0  0  2  0  0  0  0  0  0  0  0  0
   29.4090   16.0930    4.8040 C   0  0  0  0  0  0  0  0  0  0  0  0
   29.1010   17.0990    4.1580 O   0  0  0  0  0  0  0  0  0  0  0  0
   28.4630   16.0040    7.1150 C   0  0  0  0  0  0  0  0  0  0  0  0
   28.6970   15.9120    8.6130 C   0  0  0  0  0  0  0  0  0  0  0  0
   27.4510   15.4220    9.3340 C   0  0  0  0  0  0  0  0  0  0  0  0
   26.2640   16.3340    9.0750 C   0  0  0  0  0  0  0  0  0  0  0  0
   26.4980   17.7070    9.5980 N   0  0  0  0  0  0  0  0  0  0  0  0
   29.4710   14.8690    4.2730 N   0  0  0  0  0  0  0  0  0  0  0  0
   29.1180   14.6380    2.8750 C   0  0  2  0  0  0  0  0  0  0  0  0
   27.6500   14.9620    2.6340 C   0  0  0  0  0  0  0  0  0  0  0  0
   27.2540   15.3030    1.5120 O   0  0  0  0  0  0  0  0  0  0  0  0
   29.4570   13.1860    2.4790 C   0  0  2  0  0  0  0  0  0  0  0  0
   30.9240   12.8820    2.7910 C   0  0  0  0  0  0  0  0  0  0  0  0
   29.1750   12.9390    1.0030 C   0  0  0  0  0  0  0  0  0  0  0  0
   31.3760   11.5170    2.3250 C   0  0  0  0  0  0  0  0  0  0  0  0
   26.8230   14.8770    3.6790 N   0  0  0  0  0  0  0  0  0  0  0  0
   25.4100   15.2120    3.5350 C   0  0  2  0  0  0  0  0  0  0  0  0
   25.2130   16.6820    3.1860 C   0  0  0  0  0  0  0  0  0  0  0  0
   24.2610   17.0270    2.4770 O   0  0  0  0  0  0  0  0  0  0  0  0
   24.6600   14.8600    4.8200 C   0  0  0  0  0  0  0  0  0  0  0  0
   23.1400   15.0210    4.7970 C   0  0  0  0  0  0  0  0  0  0  0  0
   22.5470   14.2990    3.5990 C   0  0  0  0  0  0  0  0  0  0  0  0
   22.5340   14.5010    6.0920 C   0  0  0  0  0  0  0  0  0  0  0  0
   26.0990   17.5580    3.6650 N   0  0  0  0  0  0  0  0  0  0  0  0
   26.0050   18.9710    3.3100 C   0  0  2  0  0  0  0  0  0  0  0  0
   26.2360   19.1770    1.8180 C   0  0  0  0  0  0  0  0  0  0  0  0
   25.4290   19.8170    1.1360 O   0  0  0  0  0  0  0  0  0  0  0  0
   27.0080   19.7890    4.1250 C   0  0  0  0  0  0  0  0  0  0  0  0
   26.6250   19.9640    5.5610 C   0  0  0  0  0  0  0  0  0  0  0  0
   25.4890   20.6410    5.9500 N   0  0  0  0  0  0  0  0  0  0  0  0
   27.2330   19.5620    6.7020 C   0  0  0  0  0  0  0  0  0  0  0  0
   25.4100   20.6420    7.2690 C   0  0  0  0  0  0  0  0  0  0  0  0
   26.4570   19.9950    7.7490 N   0  0  0  0  0  0  0  0  0  0  0  0
   27.3380   18.6340    1.2930 N   0  0  0  0  0  0  0  0  0  0  0  0
   27.6430   18.7990   -0.1240 C   0  0  2  0  0  0  0  0  0  0  0  0
   26.6130   18.1100   -1.0090 C   0  0  0  0  0  0  0  0  0  0  0  0
   26.3830   18.5460   -2.1420 O   0  0  0  0  0  0  0  0  0  0  0  0
   29.0440   18.2650   -0.4260 C   0  0  0  0  0  0  0  0  0  0  0  0
   25.9860   17.0390   -0.5170 N   0  0  0  0  0  0  0  0  0  0  0  0
   24.9760   16.3500   -1.3120 C   0  0  2  0  0  0  0  0  0  0  0  0
   23.6800   17.1460   -1.3890 C   0  0  0  0  0  0  0  0  0  0  0  0
   22.9720   17.0790   -2.4010 O   0  0  0  0  0  0  0  0  0  0  0  0
   24.7120   14.9590   -0.7340 C   0  0  0  0  0  0  0  0  0  0  0  0
   23.3570   17.9060   -0.3430 N   0  0  0  0  0  0  0  0  0  0  0  0
   22.1150   18.6670   -0.2860 C   0  0  2  0  0  0  0  0  0  0  0  0
   22.1750   19.9810   -1.0540 C   0  0  0  0  0  0  0  0  0  0  0  0
   21.1740   20.7050   -1.0830 O   0  0  0  0  0  0  0  0  0  0  0  0
   21.7390   18.9490    1.1720 C   0  0  0  0  0  0  0  0  0  0  0  0
   21.0550   17.8240    1.9510 C   0  0  0  0  0  0  0  0  0  0  0  0
   20.9800   18.1730    3.4250 C   0  0  0  0  0  0  0  0  0  0  0  0
   19.6640   17.5680    1.3980 C   0  0  0  0  0  0  0  0  0  0  0  0
   23.3080   20.3110   -1.6730 N   0  0  0  0  0  0  0  0  0  0  0  0
   23.4180   21.5590   -2.4150 C   0  0  2  0  0  0  0  0  0  0  0  0
   24.1870   21.4320   -3.7220 C   0  0  0  0  0  0  0  0  0  0  0  0
   24.3950   22.4500   -4.3900 O   0  0  0  0  0  0  0  0  0  0  0  0
   24.0710   22.6420   -1.5380 C   0  0  0  0  0  0  0  0  0  0  0  0
   25.3970   22.2340   -0.9160 C   0  0  0  0  0  0  0  0  0  0  0  0
   25.8640   23.2080    0.1510 C   0  0  0  0  0  0  0  0  0  0  0  0
   25.0800   24.0060    0.6650 O   0  0  0  0  0  0  0  0  0  0  0  0
   27.1480   23.1480    0.4860 N   0  0  0  0  0  0  0  0  0  0  0  0
   24.6050   20.2320   -4.1140 N   0  0  0  0  0  0  0  0  0  0  0  0
   25.3250   20.0420   -5.3690 C   0  0  2  0  0  0  0  0  0  0  0  0
   24.7140   18.9050   -6.1820 C   0  0  0  0  0  0  0  0  0  0  0  0
   23.4930   18.7760   -6.2680 O   0  0  0  0  0  0  0  0  0  0  0  0
   26.8070   19.7620   -5.1030 C   0  0  0  0  0  0  0  0  0  0  0  0
  2  1  1  0
  3  2  1  0
  4  3  2  0
  2  5  1  1
  6  3  1  0
  7  6  1  0
  8  7  1  0
  9  8  2  0
  7 10  1  1
 11 10  1  0
 12 11  1  0
 13 12  1  0
 14 13  1  0
 15  8  1  0
 16 15  1  1
 17 16  1  0
 18 17  2  0
 19 16  1  0
 20 19  1  0
 19 21  1  6
 22 20  1  0
 23 17  1  0
 24 23  1  0
 25 24  1  0
 26 25  2  0
 24 27  1  1
 28 27  1  0
 29 28  1  0
 30 28  1  0
 31 25  1  0
 32 31  1  0
 33 32  1  0
 34 33  2  0
 32 35  1  1
 36 35  1  0
 37 36  1  0
 38 36  2  0
 39 37  2  0
 40 39  1  0
 40 38  1  0
 41 33  1  0
 42 41  1  0
 43 42  1  0
 44 43  2  0
 42 45  1  1
 46 43  1  0
 47 46  1  0
 48 47  1  0
 49 48  2  0
 47 50  1  1
 51 48  1  0
 52 51  1  0
 53 52  1  0
 54 53  2  0
 52 55  1  1
 56 55  1  0
 57 56  1  0
 58 56  1  0
 59 53  1  0
 60 59  1  0
 61 60  1  0
 62 61  2  0
 60 63  1  1
 64 63  1  0
 65 64  1  0
 66 65  2  0
 67 65  1  0
 68 61  1  0
 69 68  1  0
 70 69  1  0
 71 70  2  0
 69 72  1  1
M  END
$$$$
5TMV
     RDKit          3D

 75 75  0  0  0  0  0  0  0  0999 V2000
    6.3320  -16.3950   34.0620 N   0  0  0  0  0  0  0  0  0  0  0  0
    7.0610  -15.2480   34.5880 C   0  0  2  0  0  0  0  0  0  0  0  0
    6.1540  -14.3620   35.4380 C   0  0  0  0  0  0  0  0  0  0  0  0
    4.9910  -14.6910   35.6680 O   0  0  0  0  0  0  0  0  0  0  0  0
    7.6750  -14.4350   33.4470 C   0  0  0  0  0  0  0  0  0  0  0  0
    6.6990  -13.2360   35.9050 N   0  0  0  0  0  0  0  0  0  0  0  0
    5.9200  -12.3180   36.7330 C   0  0  2  0  0  0  0  0  0  0  0  0
    4.7700  -11.7270   35.9290 C   0  0  0  0  0  0  0  0  0  0  0  0
    3.6280  -11.6620   36.3990 O   0  0  0  0  0  0  0  0  0  0  0  0
    6.8250  -11.2170   37.3140 C   0  0  2  0  0  0  0  0  0  0  0  0
    8.0320  -11.8340   38.0230 C   0  0  0  0  0  0  0  0  0  0  0  0
    6.0400  -10.3290   38.2670 C   0  0  0  0  0  0  0  0  0  0  0  0
    9.0120  -10.8130   38.5560 C   0  0  0  0  0  0  0  0  0  0  0  0
    5.0560  -11.2870   34.7010 N   0  0  0  0  0  0  0  0  0  0  0  0
    4.0030  -10.7610   33.8390 C   0  0  2  0  0  0  0  0  0  0  0  0
    2.9710  -11.8310   33.5090 C   0  0  0  0  0  0  0  0  0  0  0  0
    1.7970  -11.5140   33.2830 O   0  0  0  0  0  0  0  0  0  0  0  0
    4.6140  -10.1900   32.5570 C   0  0  0  0  0  0  0  0  0  0  0  0
    3.6520   -9.6030   31.5240 C   0  0  0  0  0  0  0  0  0  0  0  0
    2.7920   -8.5280   32.1580 C   0  0  0  0  0  0  0  0  0  0  0  0
    4.4110   -9.0470   30.3300 C   0  0  0  0  0  0  0  0  0  0  0  0
    3.3860  -13.0990   33.4870 N   0  0  0  0  0  0  0  0  0  0  0  0
    2.4510  -14.1840   33.2100 C   0  0  2  0  0  0  0  0  0  0  0  0
    1.4600  -14.3590   34.3550 C   0  0  0  0  0  0  0  0  0  0  0  0
    0.2500  -14.4790   34.1300 O   0  0  0  0  0  0  0  0  0  0  0  0
    3.2220  -15.4810   32.9630 C   0  0  0  0  0  0  0  0  0  0  0  0
    2.7240  -16.2720   31.7940 C   0  0  0  0  0  0  0  0  0  0  0  0
    2.9790  -15.9110   30.4880 N   0  0  0  0  0  0  0  0  0  0  0  0
    1.9930  -17.4100   31.7330 C   0  0  0  0  0  0  0  0  0  0  0  0
    2.4240  -16.7910   29.6730 C   0  0  0  0  0  0  0  0  0  0  0  0
    1.8190  -17.7100   30.4030 N   0  0  0  0  0  0  0  0  0  0  0  0
    1.9560  -14.3660   35.5930 N   0  0  0  0  0  0  0  0  0  0  0  0
    1.0940  -14.6230   36.7420 C   0  0  2  0  0  0  0  0  0  0  0  0
    0.1520  -13.4560   37.0050 C   0  0  0  0  0  0  0  0  0  0  0  0
   -1.0450  -13.6550   37.2440 O   0  0  0  0  0  0  0  0  0  0  0  0
    1.9440  -14.9180   37.9770 C   0  0  0  0  0  0  0  0  0  0  0  0
    0.6740  -12.2270   36.9670 N   0  0  0  0  0  0  0  0  0  0  0  0
   -0.1600  -11.0600   37.2340 C   0  0  2  0  0  0  0  0  0  0  0  0
   -1.2710  -10.9150   36.2040 C   0  0  0  0  0  0  0  0  0  0  0  0
   -2.3680  -10.4520   36.5370 O   0  0  0  0  0  0  0  0  0  0  0  0
    0.7010   -9.7990   37.2730 C   0  0  0  0  0  0  0  0  0  0  0  0
    1.5610   -9.6180   38.5250 C   0  0  0  0  0  0  0  0  0  0  0  0
    2.4850   -8.4180   38.3830 C   0  0  0  0  0  0  0  0  0  0  0  0
    0.6750   -9.4720   39.7530 C   0  0  0  0  0  0  0  0  0  0  0  0
   -1.0140  -11.3110   34.9560 N   0  0  0  0  0  0  0  0  0  0  0  0
   -2.0490  -11.2610   33.9300 C   0  0  2  0  0  0  0  0  0  0  0  0
   -3.1490  -12.2880   34.1620 C   0  0  0  0  0  0  0  0  0  0  0  0
   -4.2780  -12.0820   33.7040 O   0  0  0  0  0  0  0  0  0  0  0  0
   -1.4310  -11.4650   32.5470 C   0  0  0  0  0  0  0  0  0  0  0  0
   -0.9000  -10.2050   31.8650 C   0  0  0  0  0  0  0  0  0  0  0  0
   -0.1730  -10.5570   30.5820 C   0  0  0  0  0  0  0  0  0  0  0  0
   -2.0420   -9.2430   31.5860 C   0  0  0  0  0  0  0  0  0  0  0  0
   -2.8520  -13.3840   34.8580 N   0  0  0  0  0  0  0  0  0  0  0  0
   -3.8490  -14.4010   35.1610 C   0  0  2  0  0  0  0  0  0  0  0  0
   -4.2480  -14.4240   36.6300 C   0  0  0  0  0  0  0  0  0  0  0  0
   -5.0610  -15.2690   37.0230 O   0  0  0  0  0  0  0  0  0  0  0  0
   -3.3420  -15.7860   34.7430 C   0  0  0  0  0  0  0  0  0  0  0  0
   -2.1820  -16.3030   35.5750 C   0  0  0  0  0  0  0  0  0  0  0  0
   -1.7480  -17.6970   35.1660 C   0  0  0  0  0  0  0  0  0  0  0  0
   -2.1560  -18.2060   34.1220 O   0  0  0  0  0  0  0  0  0  0  0  0
   -0.9180  -18.3240   35.9920 N   0  0  0  0  0  0  0  0  0  0  0  0
   -3.7010  -13.5260   37.4480 N   0  0  0  0  0  0  0  0  0  0  0  0
   -4.0500  -13.4930   38.8620 C   0  0  2  0  0  0  0  0  0  0  0  0
   -5.5180  -13.1200   39.0290 C   0  0  0  0  0  0  0  0  0  0  0  0
   -5.9900  -12.1410   38.4420 O   0  0  0  0  0  0  0  0  0  0  0  0
   -3.1560  -12.5000   39.6060 C   0  0  0  0  0  0  0  0  0  0  0  0
   -3.0880  -12.7760   41.0970 C   0  0  0  0  0  0  0  0  0  0  0  0
   -4.0630  -12.4570   41.8090 O   0  0  0  0  0  0  0  0  0  0  0  0
   -2.0530  -13.3020   41.5570 O   0  0  0  0  0  0  0  0  0  0  0  0
   -6.2330  -13.9090   39.8280 N   0  0  0  0  0  0  0  0  0  0  0  0
   -7.6800  -13.7680   40.0050 C   0  0  2  0  0  0  0  0  0  0  0  0
   -8.4110  -13.9440   38.6770 C   0  0  0  0  0  0  0  0  0  0  0  0
   -8.9580  -15.0120   38.3970 O   0  0  0  0  0  0  0  0  0  0  0  0
   -8.0280  -12.4130   40.6290 C   0  0  0  0  0  0  0  0  0  0  0  0
   -9.4290  -12.2620   40.7750 O   0  0  0  0  0  0  0  0  0  0  0  0
  2  1  1  0
  3  2  1  0
  4  3  2  0
  2  5  1  6
  6  3  1  0
  7  6  1  6
  8  7  1  0
  9  8  2  0
 10  7  1  0
 11 10  1  0
 10 12  1  1
 13 11  1  0
 14  8  1  0
 15 14  1  0
 16 15  1  0
 17 16  2  0
 15 18  1  6
 19 18  1  0
 20 19  1  0
 21 19  1  0
 22 16  1  0
 23 22  1  0
 24 23  1  0
 25 24  2  0
 23 26  1  1
 27 26  1  0
 28 27  1  0
 29 27  2  0
 30 28  2  0
 31 30  1  0
 31 29  1  0
 32 24  1  0
 33 32  1  0
 34 33  1  0
 35 34  2  0
 33 36  1  1
 37 34  1  0
 38 37  1  0
 39 38  1  0
 40 39  2  0
 38 41  1  6
 42 41  1  0
 43 42  1  0
 44 42  1  0
 45 39  1  0
 46 45  1  0
 47 46  1  0
 48 47  2  0
 46 49  1  6
 50 49  1  0
 51 50  1  0
 52 50  1  0
 53 47  1  0
 54 53  1  0
 55 54  1  0
 56 55  2  0
 54 57  1  1
 58 57  1  0
 59 58  1  0
 60 59  2  0
 61 59  1  0
 62 55  1  0
 63 62  1  0
 64 63  1  0
 65 64  2  0
 63 66  1  1
 67 66  1  0
 68 67  2  0
 69 67  1  0
 70 64  1  0
 71 70  1  0
 72 71  1  0
 73 72  2  0
 71 74  1  6
 75 74  1  0
M  END
$$$$
7UJW
     RDKit          3D

 73 72  0  0  0  0  0  0  0  0999 V2000
   -8.8070   13.5910   45.0070 N   0  0  0  0  0  0  0  0  0  0  0  0
   -7.7210   13.0960   44.1730 C   0  0  2  0  0  0  0  0  0  0  0  0
   -6.3530   13.3990   44.7850 C   0  0  0  0  0  0  0  0  0  0  0  0
   -5.3480   12.7940   44.4160 O   0  0  0  0  0  0  0  0  0  0  0  0
   -7.8110   13.7030   42.7730 C   0  0  0  0  0  0  0  0  0  0  0  0
   -6.3290   14.3570   45.7070 N   0  0  0  0  0  0  0  0  0  0  0  0
   -5.0940   14.9080   46.2640 C   0  0  2  0  0  0  0  0  0  0  0  0
   -4.1490   13.8770   46.8840 C   0  0  0  0  0  0  0  0  0  0  0  0
   -2.9380   13.9410   46.6750 O   0  0  0  0  0  0  0  0  0  0  0  0
   -5.4340   15.9700   47.3160 C   0  0  0  0  0  0  0  0  0  0  0  0
   -6.3690   15.4730   48.2570 O   0  0  0  0  0  0  0  0  0  0  0  0
   -4.7000   12.9370   47.6460 N   0  0  0  0  0  0  0  0  0  0  0  0
   -3.8890   11.9210   48.3130 C   0  0  2  0  0  0  0  0  0  0  0  0
   -3.1080   11.0980   47.2950 C   0  0  0  0  0  0  0  0  0  0  0  0
   -1.9510   10.7440   47.5210 O   0  0  0  0  0  0  0  0  0  0  0  0
   -4.7670   11.0070   49.1730 C   0  0  0  0  0  0  0  0  0  0  0  0
   -3.7550   10.8060   46.1700 N   0  0  0  0  0  0  0  0  0  0  0  0
   -3.1210   10.0990   45.0620 C   0  0  2  0  0  0  0  0  0  0  0  0
   -1.9900   10.9160   44.4540 C   0  0  0  0  0  0  0  0  0  0  0  0
   -0.8690   10.4280   44.3030 O   0  0  0  0  0  0  0  0  0  0  0  0
   -4.1540    9.7650   43.9860 C   0  0  0  0  0  0  0  0  0  0  0  0
   -3.6170    9.2640   42.6450 C   0  0  0  0  0  0  0  0  0  0  0  0
   -2.8650    7.9580   42.8150 C   0  0  0  0  0  0  0  0  0  0  0  0
   -4.7510    9.1050   41.6470 C   0  0  0  0  0  0  0  0  0  0  0  0
   -2.3020   12.1590   44.0980 N   0  0  0  0  0  0  0  0  0  0  0  0
   -1.3250   13.0690   43.5170 C   0  0  2  0  0  0  0  0  0  0  0  0
   -0.1160   13.2260   44.4310 C   0  0  0  0  0  0  0  0  0  0  0  0
    1.0210   13.2020   43.9730 O   0  0  0  0  0  0  0  0  0  0  0  0
   -1.9560   14.4370   43.2440 C   0  0  0  0  0  0  0  0  0  0  0  0
   -3.2870   14.4530   42.4910 C   0  0  0  0  0  0  0  0  0  0  0  0
   -3.8880   15.8520   42.4990 C   0  0  0  0  0  0  0  0  0  0  0  0
   -3.1090   13.9520   41.0680 C   0  0  0  0  0  0  0  0  0  0  0  0
   -0.3700   13.3680   45.7270 N   0  0  0  0  0  0  0  0  0  0  0  0
    0.7050   13.5530   46.6930 C   0  0  2  0  0  0  0  0  0  0  0  0
    1.5500   12.2900   46.8550 C   0  0  0  0  0  0  0  0  0  0  0  0
    2.7780   12.3660   46.9210 O   0  0  0  0  0  0  0  0  0  0  0  0
    0.1400   13.9840   48.0470 C   0  0  0  0  0  0  0  0  0  0  0  0
    1.1890   14.3140   49.1080 C   0  0  0  0  0  0  0  0  0  0  0  0
    2.1810   15.3320   48.5760 C   0  0  0  0  0  0  0  0  0  0  0  0
    0.5300   14.8220   50.3800 C   0  0  0  0  0  0  0  0  0  0  0  0
    0.8780   11.1490   46.9840 N   0  0  0  0  0  0  0  0  0  0  0  0
    1.6220    9.8780   47.0950 C   0  0  2  0  0  0  0  0  0  0  0  0
    2.2840    9.6470   45.7440 C   0  0  0  0  0  0  0  0  0  0  0  0
    3.4930    9.3970   45.7210 O   0  0  0  0  0  0  0  0  0  0  0  0
    0.6800    8.7200   47.4150 C   0  0  0  0  0  0  0  0  0  0  0  0
    1.1390    7.4020   46.8230 C   0  0  0  0  0  0  0  0  0  0  0  0
    0.8010    6.1260   47.5780 C   0  0  0  0  0  0  0  0  0  0  0  0
   -0.3230    6.0100   48.0860 O   0  0  0  0  0  0  0  0  0  0  0  0
    1.6620    5.2410   47.6340 O   0  0  0  0  0  0  0  0  0  0  0  0
    1.5070    9.8190   44.6700 N   0  0  0  0  0  0  0  0  0  0  0  0
    1.9750    9.5790   43.2800 C   0  0  2  0  0  0  0  0  0  0  0  0
    3.2380   10.3680   42.9740 C   0  0  0  0  0  0  0  0  0  0  0  0
    4.1300    9.7920   42.3960 O   0  0  0  0  0  0  0  0  0  0  0  0
    0.8970    9.8810   42.2410 C   0  0  0  0  0  0  0  0  0  0  0  0
    0.6430    8.7000   41.3310 C   0  0  0  0  0  0  0  0  0  0  0  0
    2.0090    7.5400   41.3890 S   0  0  0  0  0  0  0  0  0  0  0  0
    3.0940    8.2360   40.1480 C   0  0  0  0  0  0  0  0  0  0  0  0
    3.2710   11.6490   43.3210 N   0  0  0  0  0  0  0  0  0  0  0  0
    4.4810   12.4840   43.1130 C   0  0  2  0  0  0  0  0  0  0  0  0
    5.4650   12.1640   44.2390 C   0  0  0  0  0  0  0  0  0  0  0  0
    5.8220   13.0880   44.9550 O   0  0  0  0  0  0  0  0  0  0  0  0
    4.0690   13.9560   43.1810 C   0  0  0  0  0  0  0  0  0  0  0  0
    3.1680   14.4550   42.0560 C   0  0  0  0  0  0  0  0  0  0  0  0
    2.0330   15.2960   42.5950 C   0  0  0  0  0  0  0  0  0  0  0  0
    3.9590   15.2560   41.0510 C   0  0  0  0  0  0  0  0  0  0  0  0
    5.8630   10.8940   44.3740 N   0  0  0  0  0  0  0  0  0  0  0  0
    6.7700   10.4360   45.4650 C   0  0  2  0  0  0  0  0  0  0  0  0
    7.9720   11.3750   45.6090 C   0  0  0  0  0  0  0  0  0  0  0  0
    9.0920   10.8560   45.6410 O   0  0  0  0  0  0  0  0  0  0  0  0
    7.2300    8.9890   45.2810 C   0  0  0  0  0  0  0  0  0  0  0  0
    6.5590    8.2350   44.1470 C   0  0  0  0  0  0  0  0  0  0  0  0
    5.7840    7.3130   44.4370 O   0  0  0  0  0  0  0  0  0  0  0  0
    6.8430    8.5530   42.9840 O   0  0  0  0  0  0  0  0  0  0  0  0
  2  1  1  0
  3  2  1  0
  4  3  2  0
  2  5  1  6
  6  3  1  0
  7  6  1  0
  8  7  1  0
  9  8  2  0
  7 10  1  1
 11 10  1  0
 12  8  1  0
 13 12  1  0
 14 13  1  0
 15 14  2  0
 13 16  1  6
 17 14  1  0
 18 17  1  0
 19 18  1  0
 20 19  2  0
 18 21  1  6
 22 21  1  0
 23 22  1  0
 24 22  1  0
 25 19  1  0
 26 25  1  0
 27 26  1  0
 28 27  2  0
 26 29  1  1
 30 29  1  0
 31 30  1  0
 32 30  1  0
 33 27  1  0
 34 33  1  0
 35 34  1  0
 36 35  2  0
 34 37  1  1
 38 37  1  0
 39 38  1  0
 40 38  1  0
 41 35  1  0
 42 41  1  0
 43 42  1  0
 44 43  2  0
 42 45  1  6
 46 45  1  0
 47 46  1  0
 48 47  2  0
 49 47  1  0
 50 43  1  0
 51 50  1  0
 52 51  1  0
 53 52  2  0
 51 54  1  6
 55 54  1  0
 56 55  1  0
 57 56  1  0
 58 52  1  0
 59 58  1  0
 60 59  1  0
 61 60  2  0
 59 62  1  1
 63 62  1  0
 64 63  1  0
 65 63  1  0
 66 60  1  0
 67 66  1  0
 68 67  1  0
 69 68  2  0
 67 70  1  6
 71 70  1  0
 72 71  2  0
 73 71  1  0
M  END
$$$$
8DUS
     RDKit          3D

 33 37  0  0  0  0  0  0  0  0999 V2000
   -1.6810    4.2010  -27.7090 N   0  0  0  0  0  0  0  0  0  0  0  0
   -1.3780    0.0000  -27.0760 C   0  0  0  0  0  0  0  0  0  0  0  0
   -1.5310    1.5010  -27.1800 C   0  0  0  0  0  0  0  0  0  0  0  0
   -2.6610    2.1260  -26.9550 C   0  0  0  0  0  0  0  0  0  0  0  0
   -0.1940    2.1850  -27.5950 C   0  0  0  0  0  0  0  0  0  0  0  0
   -0.3360    3.7650  -27.5180 C   0  0  1  0  0  0  0  0  0  0  0  0
   -2.0160    5.3520  -28.6600 C   0  0  1  0  0  0  0  0  0  0  0  0
    0.5000    5.7210  -31.5220 C   0  0  0  0  0  0  0  0  0  0  0  0
    0.4820    7.8270  -30.3820 C   0  0  0  0  0  0  0  0  0  0  0  0
    1.0360    4.4230  -27.6880 C   0  0  0  0  0  0  0  0  0  0  0  0
   -2.3830    3.6550  -24.6360 C   0  0  0  0  0  0  0  0  0  0  0  0
   -2.5760    4.2390  -23.2190 C   0  0  0  0  0  0  0  0  0  0  0  0
   -3.3920    5.2480  -22.9950 C   0  0  2  0  0  0  0  0  0  0  0  0
   -3.9870    5.3710  -25.4220 C   0  0  0  0  0  0  0  0  0  0  0  0
   -5.2740    4.8340  -20.4290 C   0  0  0  0  0  0  0  0  0  0  0  0
   -3.9820    2.4760  -18.9950 C   0  0  0  0  0  0  0  0  0  0  0  0
   -3.8460    1.2890  -26.5700 C   0  0  0  0  0  0  0  0  0  0  0  0
   -0.9310    6.0050  -29.5980 C   0  0  1  0  0  0  0  0  0  0  0  0
   -0.5390    5.2420  -30.5280 C   0  0  0  0  0  0  0  0  0  0  0  0
    0.9610    6.9170  -31.4380 C   0  0  0  0  0  0  0  0  0  0  0  0
   -0.4050    7.4500  -29.5180 C   0  0  0  0  0  0  0  0  0  0  0  0
    0.4980    4.3240  -26.3330 C   0  0  0  0  0  0  0  0  0  0  0  0
   -3.0220    4.1870  -25.6570 C   0  0  0  0  0  0  0  0  0  0  0  0
   -3.7310   -0.0080  -26.4960 C   0  0  0  0  0  0  0  0  0  0  0  0
   -4.1360    5.8480  -24.1960 C   0  0  0  0  0  0  0  0  0  0  0  0
   -4.6700    6.1030  -21.0900 C   0  0  0  0  0  0  0  0  0  0  0  0
   -3.7950    3.9790  -18.7850 C   0  0  0  0  0  0  0  0  0  0  0  0
   -2.4170   -0.7140  -26.7430 C   0  0  0  0  0  0  0  0  0  0  0  0
   -2.8280    3.6050  -27.0090 C   0  0  1  0  0  0  0  0  0  0  0  0
   -5.0080    4.7330  -19.0060 N   0  0  0  0  0  0  0  0  0  0  0  0
   -2.3600   -2.0630  -26.6240 O   0  0  0  0  0  0  0  0  0  0  0  0
   -3.1110    5.6220  -28.7700 O   0  0  0  0  0  0  0  0  0  0  0  0
   -3.4680    5.7300  -21.6600 O   0  0  0  0  0  0  0  0  0  0  0  0
  3  2  1  0
  4  3  1  0
  5  3  1  0
  6  5  1  1
  6  1  1  0
  7  1  1  0
 10  6  1  0
 12 11  1  0
 13 12  1  0
 17  4  1  0
 18  7  1  0
 18 19  1  6
 19  8  1  0
 20  9  1  0
 20  8  1  0
 21 18  1  0
 21  9  1  0
 22 10  1  0
 22  6  1  0
 23 14  1  0
 23 11  1  0
 24 17  1  0
 25 14  1  0
 25 13  1  0
 26 15  1  0
 27 16  1  0
 28 24  1  0
 28  2  1  0
 29  1  1  0
 29 23  1  1
 29  4  1  0
 30 27  1  0
 30 15  1  0
 31 28  1  0
  7 32  1  6
 13 33  1  6
 33 26  1  0
M  END
$$$$
8DUD
     RDKit          3D

 37 42  0  0  0  0  0  0  0  0999 V2000
   31.3850    0.7180  -28.4220 N   0  0  0  0  0  0  0  0  0  0  0  0
   27.1070    0.5130  -27.4640 C   0  0  0  0  0  0  0  0  0  0  0  0
   28.6250    0.5390  -27.6120 C   0  0  2  0  0  0  0  0  0  0  0  0
   29.3260    1.6560  -27.4370 C   0  0  0  0  0  0  0  0  0  0  0  0
   29.3780   -0.8080  -28.1000 C   0  0  0  0  0  0  0  0  0  0  0  0
   30.9110   -0.5950  -28.3750 C   0  0  2  0  0  0  0  0  0  0  0  0
   32.5930    1.1150  -29.1750 C   0  0  1  0  0  0  0  0  0  0  0  0
   35.1930   -0.9690  -31.1290 C   0  0  0  0  0  0  0  0  0  0  0  0
   32.9290   -1.2830  -32.0770 C   0  0  0  0  0  0  0  0  0  0  0  0
   31.6270    1.9640  -26.3760 C   0  0  0  0  0  0  0  0  0  0  0  0
   32.8840    2.3680  -23.9510 C   0  0  0  0  0  0  0  0  0  0  0  0
   31.6360    1.5340  -24.0460 C   0  0  0  0  0  0  0  0  0  0  0  0
   31.0240    1.3290  -25.1610 C   0  0  0  0  0  0  0  0  0  0  0  0
   31.3550   -1.7190  -27.4120 C   0  0  0  0  0  0  0  0  0  0  0  0
   33.3720    3.7910  -20.5970 C   0  0  2  0  0  0  0  0  0  0  0  0
   32.5470    5.1390  -19.0490 C   0  0  0  0  0  0  0  0  0  0  0  0
   28.5720    2.8990  -27.0350 C   0  0  0  0  0  0  0  0  0  0  0  0
   33.3020    0.1210  -30.1360 C   0  0  2  0  0  0  0  0  0  0  0  0
   34.5860   -0.0610  -30.0800 C   0  0  0  0  0  0  0  0  0  0  0  0
   34.4240   -1.5370  -32.0120 C   0  0  0  0  0  0  0  0  0  0  0  0
   32.3990   -0.4900  -31.1980 C   0  0  0  0  0  0  0  0  0  0  0  0
   32.7250    2.6810  -26.3580 C   0  0  0  0  0  0  0  0  0  0  0  0
   33.4180    2.9090  -25.0180 C   0  0  0  0  0  0  0  0  0  0  0  0
   27.2620    2.8720  -26.8540 C   0  0  0  0  0  0  0  0  0  0  0  0
   31.6080   -1.8740  -28.8400 C   0  0  0  0  0  0  0  0  0  0  0  0
   33.7880    3.7130  -22.1330 C   0  0  0  0  0  0  0  0  0  0  0  0
   32.4350    4.8330  -20.5390 C   0  0  0  0  0  0  0  0  0  0  0  0
   34.4620    4.0300  -19.5780 C   0  0  0  0  0  0  0  0  0  0  0  0
   26.4410    1.6030  -27.0890 C   0  0  0  0  0  0  0  0  0  0  0  0
   34.3220    5.0230  -17.6240 C   0  0  0  0  0  0  0  0  0  0  0  0
   33.2820    5.5530  -16.5830 C   0  0  0  0  0  0  0  0  0  0  0  0
   33.9230    6.4960  -15.5740 C   0  0  0  0  0  0  0  0  0  0  0  0
   30.8120    1.7060  -27.6410 C   0  0  1  0  0  0  0  0  0  0  0  0
   33.9490    5.0060  -18.8020 N   0  0  0  0  0  0  0  0  0  0  0  0
   25.0730    1.6260  -26.9080 O   0  0  0  0  0  0  0  0  0  0  0  0
   32.9920    2.2090  -29.1740 O   0  0  0  0  0  0  0  0  0  0  0  0
   33.4040    2.4460  -22.6360 O   0  0  0  0  0  0  0  0  0  0  0  0
  3  2  1  6
  4  3  1  0
  5  3  1  0
  6  5  1  6
  6  1  1  0
  7  1  1  0
 12 11  1  0
 13 12  1  0
 13 10  1  0
 14  6  1  0
 17  4  1  0
 18  7  1  0
 18 19  1  6
 19  8  1  0
 20  9  1  0
 20  8  1  0
 21 18  1  0
 21  9  1  0
 22 10  1  0
 23 22  1  0
 23 11  1  0
 24 17  1  0
 25 14  1  0
 25  6  1  0
 15 26  1  6
 27 16  1  0
 27 15  1  0
 28 15  1  0
 29  2  1  0
 29 24  1  0
 31 30  1  0
 32 31  1  0
 33  4  1  0
 33  1  1  0
 33 10  1  1
 34 16  1  0
 34 30  1  0
 34 28  1  0
 35 29  1  0
  7 36  1  6
 37 26  1  0
 37 11  1  0
M  END
$$$$
7PWT
     RDKit          3D

 76 77  0  0  0  0  0  0  0  0999 V2000
   16.1820   10.1490   31.1200 N   0  0  0  0  0  0  0  0  0  0  0  0
   16.1850   11.0060   29.9360 C   0  0  2  0  0  0  0  0  0  0  0  0
   16.7780   10.2830   28.7250 C   0  0  0  0  0  0  0  0  0  0  0  0
   17.6570    9.4380   28.8760 O   0  0  0  0  0  0  0  0  0  0  0  0
   16.9710   12.2910   30.2130 C   0  0  0  0  0  0  0  0  0  0  0  0
   16.3780   13.1460   31.2960 C   0  0  0  0  0  0  0  0  0  0  0  0
   16.8160   13.0390   32.6060 C   0  0  0  0  0  0  0  0  0  0  0  0
   15.3800   14.0580   31.0030 C   0  0  0  0  0  0  0  0  0  0  0  0
   16.2710   13.8340   33.5990 C   0  0  0  0  0  0  0  0  0  0  0  0
   14.8300   14.8480   31.9910 C   0  0  0  0  0  0  0  0  0  0  0  0
   15.2750   14.7370   33.2880 C   0  0  0  0  0  0  0  0  0  0  0  0
   15.2700   11.2450   29.7210 H   0  0  0  0  0  0  0  0  0  0  0  0
   17.8710   12.0530   30.4830 H   0  0  0  0  0  0  0  0  0  0  0  0
   16.9970   12.8200   29.4000 H   0  0  0  0  0  0  0  0  0  0  0  0
   17.4830   12.4270   32.8200 H   0  0  0  0  0  0  0  0  0  0  0  0
   15.0750   14.1400   30.1280 H   0  0  0  0  0  0  0  0  0  0  0  0
   16.5760   13.7600   34.4750 H   0  0  0  0  0  0  0  0  0  0  0  0
   14.1580   15.4560   31.7800 H   0  0  0  0  0  0  0  0  0  0  0  0
   14.9050   15.2700   33.9550 H   0  0  0  0  0  0  0  0  0  0  0  0
   16.2930   10.6080   27.5280 N   0  0  0  0  0  0  0  0  0  0  0  0
   16.8700   10.0130   26.3120 C   0  0  2  0  0  0  0  0  0  0  0  0
   18.2280   10.6150   26.0180 C   0  0  0  0  0  0  0  0  0  0  0  0
   18.5930   11.6740   26.5310 O   0  0  0  0  0  0  0  0  0  0  0  0
   15.8690   10.3630   25.2100 C   0  0  0  0  0  0  0  0  0  0  0  0
   15.2630   11.6510   25.6940 C   0  0  0  0  0  0  0  0  0  0  0  0
   15.2310   11.5840   27.2240 C   0  0  0  0  0  0  0  0  0  0  0  0
   16.9310    9.0480   26.3920 H   0  0  0  0  0  0  0  0  0  0  0  0
   16.3280   10.4830   24.3640 H   0  0  0  0  0  0  0  0  0  0  0  0
   15.2000    9.6660   25.1290 H   0  0  0  0  0  0  0  0  0  0  0  0
   15.8100   12.3960   25.3980 H   0  0  0  0  0  0  0  0  0  0  0  0
   14.3640   11.7380   25.3400 H   0  0  0  0  0  0  0  0  0  0  0  0
   15.4330   12.4490   27.6140 H   0  0  0  0  0  0  0  0  0  0  0  0
   14.3700   11.2700   27.5400 H   0  0  0  0  0  0  0  0  0  0  0  0
   18.9790    9.9170   25.1840 N   0  0  0  0  0  0  0  0  0  0  0  0
   20.3310   10.3290   24.8860 C   0  0  2  0  0  0  0  0  0  0  0  0
   20.4100   11.3920   23.7810 C   0  0  0  0  0  0  0  0  0  0  0  0
   19.7280   11.3250   22.7600 O   0  0  0  0  0  0  0  0  0  0  0  0
   21.1710    9.1020   24.4940 C   0  0  0  0  0  0  0  0  0  0  0  0
   18.7260    9.2010   24.7800 H   0  0  0  0  0  0  0  0  0  0  0  0
   20.6980   10.7350   25.6870 H   0  0  0  0  0  0  0  0  0  0  0  0
   21.1780    8.4750   25.2340 H   0  0  0  0  0  0  0  0  0  0  0  0
   20.7780    8.6870   23.7110 H   0  0  0  0  0  0  0  0  0  0  0  0
   22.0760    9.3900   24.2970 H   0  0  0  0  0  0  0  0  0  0  0  0
   21.2840   12.3570   24.0200 N   0  0  0  0  0  0  0  0  0  0  0  0
   21.6680   13.4250   23.0970 C   0  0  1  0  0  0  0  0  0  0  0  0
   21.1510   14.7480   23.5870 C   0  0  1  0  0  0  0  0  0  0  0  0
   19.6410   14.7420   23.3840 C   0  0  2  0  0  0  0  0  0  0  0  0
   21.4950   14.8680   24.9620 O   0  0  0  0  0  0  0  0  0  0  0  0
   21.2050   16.3830   25.4300 P   0  0  0  0  0  0  0  0  0  0  0  0
   21.6620   17.4630   24.3370 O   0  0  0  0  0  0  0  0  0  0  0  0
   22.0170   16.6500   26.7950 O   0  0  0  0  0  0  0  0  0  0  0  0
   19.7380   16.5390   25.7190 O   0  0  0  0  0  0  0  0  0  0  0  0
   23.2120   13.4020   23.0230 C   0  0  0  0  0  0  0  0  0  0  0  0
   23.8500   12.7790   23.8610 O   0  0  0  0  0  0  0  0  0  0  0  0
   21.2840   13.3080   22.2030 H   0  0  0  0  0  0  0  0  0  0  0  0
   21.5810   15.5930   23.0500 H   0  0  0  0  0  0  0  0  0  0  0  0
   19.4120   14.4480   22.3600 H   0  0  0  0  0  0  0  0  0  0  0  0
   19.2450   15.7400   23.5720 H   0  0  0  0  0  0  0  0  0  0  0  0
   19.1840   14.0350   24.0760 H   0  0  0  0  0  0  0  0  0  0  0  0
   23.8030   14.0400   22.0150 N   0  0  0  0  0  0  0  0  0  0  0  0
   25.2500   14.1580   21.9530 C   0  0  2  0  0  0  0  0  0  0  0  0
   25.5650   15.5830   21.5540 C   0  0  0  0  0  0  0  0  0  0  0  0
   24.6840   16.3450   21.2020 O   0  0  0  0  0  0  0  0  0  0  0  0
   25.9170   13.1710   20.9730 C   0  0  0  0  0  0  0  0  0  0  0  0
   25.6790   11.7240   21.3970 C   0  0  0  0  0  0  0  0  0  0  0  0
   25.4300   13.4210   19.5580 C   0  0  0  0  0  0  0  0  0  0  0  0
   26.7080   16.0260   21.5450 O   0  0  0  0  0  0  0  0  0  0  0  0
   23.3860   14.4100   21.3600 H   0  0  0  0  0  0  0  0  0  0  0  0
   25.6190   13.9390   22.8230 H   0  0  0  0  0  0  0  0  0  0  0  0
   26.8750   13.3170   20.9900 H   0  0  0  0  0  0  0  0  0  0  0  0
   24.7260   11.5750   21.4940 H   0  0  0  0  0  0  0  0  0  0  0  0
   26.0390   11.1330   20.7170 H   0  0  0  0  0  0  0  0  0  0  0  0
   26.1260   11.5650   22.2430 H   0  0  0  0  0  0  0  0  0  0  0  0
   24.6360   13.9770   19.5900 H   0  0  0  0  0  0  0  0  0  0  0  0
   26.1290   13.8720   19.0590 H   0  0  0  0  0  0  0  0  0  0  0  0
   25.2210   12.5710   19.1410 H   0  0  0  0  0  0  0  0  0  0  0  0
  2  1  1  0
  3  2  1  0
  4  3  2  0
  5  2  1  0
  6  5  1  0
  7  6  2  0
  8  6  1  0
  9  7  1  0
 10  8  2  0
 11 10  1  0
 11  9  2  0
  2 12  1  6
 13  5  1  0
 14  5  1  0
 15  7  1  0
 16  8  1  0
 17  9  1  0
 18 10  1  0
 19 11  1  0
 20  3  1  0
 21 20  1  0
 22 21  1  0
 23 22  2  0
 24 21  1  0
 25 24  1  0
 26 20  1  0
 26 25  1  0
 21 27  1  1
 28 24  1  0
 29 24  1  0
 30 25  1  0
 31 25  1  0
 32 26  1  0
 33 26  1  0
 34 22  1  0
 35 34  1  0
 36 35  1  0
 37 36  2  0
 38 35  1  0
 39 34  1  0
 35 40  1  1
 41 38  1  0
 42 38  1  0
 43 38  1  0
 44 36  1  0
 45 44  1  0
 46 45  1  0
 47 46  1  0
 48 46  1  0
 49 48  1  0
 50 49  1  0
 51 49  1  0
 52 49  1  0
 53 45  1  0
 54 53  1  0
 45 55  1  6
 46 56  1  6
 47 57  1  6
 58 47  1  0
 59 47  1  0
 60 53  1  0
 61 60  1  0
 62 61  1  0
 63 62  2  0
 64 61  1  0
 65 64  1  0
 66 64  1  0
 67 62  1  0
 68 60  1  0
 61 69  1  1
 70 64  1  0
 71 65  1  0
 72 65  1  0
 73 65  1  0
 74 66  1  0
 75 66  1  0
 76 66  1  0
M  END
$$$$
5TN6
     RDKit          3D

 76 76  0  0  0  0  0  0  0  0999 V2000
  -11.8290   -7.0010    6.6640 N   0  0  0  0  0  0  0  0  0  0  0  0
  -12.5120   -5.8640    6.0590 C   0  0  2  0  0  0  0  0  0  0  0  0
  -11.9240   -4.5480    6.5600 C   0  0  0  0  0  0  0  0  0  0  0  0
  -11.3060   -4.4970    7.6240 O   0  0  0  0  0  0  0  0  0  0  0  0
  -14.0130   -5.9220    6.3520 C   0  0  0  0  0  0  0  0  0  0  0  0
  -12.1200   -3.4850    5.7880 N   0  0  0  0  0  0  0  0  0  0  0  0
  -11.5710   -2.1870    6.1380 C   0  0  2  0  0  0  0  0  0  0  0  0
  -12.4310   -1.5050    7.2000 C   0  0  0  0  0  0  0  0  0  0  0  0
  -13.5730   -1.8930    7.4630 O   0  0  0  0  0  0  0  0  0  0  0  0
  -11.4550   -1.3040    4.8970 C   0  0  0  0  0  0  0  0  0  0  0  0
  -11.8580   -0.4710    7.8210 N   0  0  0  0  0  0  0  0  0  0  0  0
  -12.5940    0.3070    8.8140 C   0  0  2  0  0  0  0  0  0  0  0  0
  -13.7710    1.0200    8.1640 C   0  0  0  0  0  0  0  0  0  0  0  0
  -14.8820    1.0400    8.7090 O   0  0  0  0  0  0  0  0  0  0  0  0
  -11.6520    1.2990    9.5190 C   0  0  2  0  0  0  0  0  0  0  0  0
  -10.5300    0.5480   10.2380 C   0  0  0  0  0  0  0  0  0  0  0  0
  -12.4280    2.1750   10.4900 C   0  0  0  0  0  0  0  0  0  0  0  0
   -9.5250    1.4550   10.9130 C   0  0  0  0  0  0  0  0  0  0  0  0
  -13.5460    1.6220    6.9920 N   0  0  0  0  0  0  0  0  0  0  0  0
  -14.6350    2.2460    6.2490 C   0  0  2  0  0  0  0  0  0  0  0  0
  -15.7410    1.2490    5.9440 C   0  0  0  0  0  0  0  0  0  0  0  0
  -16.9240    1.6070    5.9500 O   0  0  0  0  0  0  0  0  0  0  0  0
  -14.0970    2.8570    4.9550 C   0  0  0  0  0  0  0  0  0  0  0  0
  -15.0970    3.4290    3.9500 C   0  0  0  0  0  0  0  0  0  0  0  0
  -15.8760    4.5880    4.5480 C   0  0  0  0  0  0  0  0  0  0  0  0
  -14.3710    3.8640    2.6880 C   0  0  0  0  0  0  0  0  0  0  0  0
  -15.3740   -0.0070    5.6860 N   0  0  0  0  0  0  0  0  0  0  0  0
  -16.3710   -1.0430    5.4570 C   0  0  2  0  0  0  0  0  0  0  0  0
  -17.2350   -1.2590    6.6940 C   0  0  0  0  0  0  0  0  0  0  0  0
  -18.4580   -1.4070    6.5880 O   0  0  0  0  0  0  0  0  0  0  0  0
  -15.6730   -2.3380    5.0410 C   0  0  0  0  0  0  0  0  0  0  0  0
  -16.6090   -3.4290    4.6270 C   0  0  0  0  0  0  0  0  0  0  0  0
  -17.0260   -4.4190    5.4910 N   0  0  0  0  0  0  0  0  0  0  0  0
  -17.1990   -3.6940    3.4380 C   0  0  0  0  0  0  0  0  0  0  0  0
  -17.8370   -5.2440    4.8540 C   0  0  0  0  0  0  0  0  0  0  0  0
  -17.9580   -4.8270    3.6060 N   0  0  0  0  0  0  0  0  0  0  0  0
  -16.6190   -1.2620    7.8800 N   0  0  0  0  0  0  0  0  0  0  0  0
  -17.3780   -1.4840    9.1080 C   0  0  2  0  0  0  0  0  0  0  0  0
  -18.2720   -0.2930    9.4270 C   0  0  0  0  0  0  0  0  0  0  0  0
  -19.4600   -0.4580    9.7280 O   0  0  0  0  0  0  0  0  0  0  0  0
  -16.4310   -1.7710   10.2760 C   0  0  0  0  0  0  0  0  0  0  0  0
  -17.1530   -1.9210   11.6090 C   0  0  0  0  0  0  0  0  0  0  0  0
  -16.2200   -2.3150   12.7500 C   0  0  0  0  0  0  0  0  0  0  0  0
  -15.3370   -1.2270   13.1610 N   0  0  0  0  0  0  0  0  0  0  0  0
  -14.0390   -1.1720   12.8790 C   0  0  0  0  0  0  0  0  0  0  0  0
  -13.4660   -2.1460   12.1860 N   0  0  0  0  0  0  0  0  0  0  0  0
  -13.3120   -0.1440   13.2960 N   0  0  0  0  0  0  0  0  0  0  0  0
  -17.7160    0.9190    9.3660 N   0  0  0  0  0  0  0  0  0  0  0  0
  -18.4860    2.1180    9.6780 C   0  0  2  0  0  0  0  0  0  0  0  0
  -19.6600    2.3180    8.7290 C   0  0  0  0  0  0  0  0  0  0  0  0
  -20.6500    2.9500    9.1110 O   0  0  0  0  0  0  0  0  0  0  0  0
  -17.5700    3.3420    9.6500 C   0  0  0  0  0  0  0  0  0  0  0  0
  -16.4510    3.3240   10.6930 C   0  0  0  0  0  0  0  0  0  0  0  0
  -15.4820    4.4690   10.4620 C   0  0  0  0  0  0  0  0  0  0  0  0
  -17.0360    3.3920   12.0920 C   0  0  0  0  0  0  0  0  0  0  0  0
  -19.5760    1.7920    7.5060 N   0  0  0  0  0  0  0  0  0  0  0  0
  -20.6930    1.8950    6.5750 C   0  0  2  0  0  0  0  0  0  0  0  0
  -21.7850    0.8780    6.8780 C   0  0  0  0  0  0  0  0  0  0  0  0
  -22.9630    1.1440    6.6150 O   0  0  0  0  0  0  0  0  0  0  0  0
  -20.1990    1.7280    5.1380 C   0  0  0  0  0  0  0  0  0  0  0  0
  -19.5880    2.9700    4.4870 C   0  0  0  0  0  0  0  0  0  0  0  0
  -18.7560    2.5910    3.2710 C   0  0  0  0  0  0  0  0  0  0  0  0
  -20.6800    3.9550    4.0990 C   0  0  0  0  0  0  0  0  0  0  0  0
  -21.4250   -0.2810    7.4230 N   0  0  0  0  0  0  0  0  0  0  0  0
  -22.4070   -1.2800    7.8410 C   0  0  2  0  0  0  0  0  0  0  0  0
  -22.7480   -1.0130    9.3020 C   0  0  0  0  0  0  0  0  0  0  0  0
  -22.0330   -1.4500   10.2060 O   0  0  0  0  0  0  0  0  0  0  0  0
  -21.8670   -2.6910    7.6370 C   0  0  0  0  0  0  0  0  0  0  0  0
  -23.8450   -0.2930    9.5290 N   0  0  0  0  0  0  0  0  0  0  0  0
  -24.2480    0.1350   10.8690 C   0  0  2  0  0  0  0  0  0  0  0  0
  -23.1300    0.9210   11.5510 C   0  0  0  0  0  0  0  0  0  0  0  0
  -22.3820    0.3800   12.3660 O   0  0  0  0  0  0  0  0  0  0  0  0
  -24.6560   -1.0660   11.7320 C   0  0  0  0  0  0  0  0  0  0  0  0
  -25.9890   -1.6590   11.3160 C   0  0  0  0  0  0  0  0  0  0  0  0
  -26.8680   -0.8910   10.8700 O   0  0  0  0  0  0  0  0  0  0  0  0
  -26.1600   -2.8930   11.4350 O   0  0  0  0  0  0  0  0  0  0  0  0
  2  1  1  0
  3  2  1  0
  4  3  2  0
  2  5  1  1
  6  3  1  0
  7  6  1  0
  8  7  1  0
  9  8  2  0
  7 10  1  6
 11  8  1  0
 12 11  1  6
 13 12  1  0
 14 13  2  0
 15 12  1  0
 16 15  1  0
 15 17  1  1
 18 16  1  0
 19 13  1  0
 20 19  1  0
 21 20  1  0
 22 21  2  0
 20 23  1  6
 24 23  1  0
 25 24  1  0
 26 24  1  0
 27 21  1  0
 28 27  1  0
 29 28  1  0
 30 29  2  0
 28 31  1  1
 32 31  1  0
 33 32  1  0
 34 32  2  0
 35 33  2  0
 36 35  1  0
 36 34  1  0
 37 29  1  0
 38 37  1  0
 39 38  1  0
 40 39  2  0
 38 41  1  1
 42 41  1  0
 43 42  1  0
 44 43  1  0
 45 44  1  0
 46 45  1  0
 47 45  2  0
 48 39  1  0
 49 48  1  0
 50 49  1  0
 51 50  2  0
 49 52  1  6
 53 52  1  0
 54 53  1  0
 55 53  1  0
 56 50  1  0
 57 56  1  0
 58 57  1  0
 59 58  2  0
 57 60  1  6
 61 60  1  0
 62 61  1  0
 63 61  1  0
 64 58  1  0
 65 64  1  0
 66 65  1  0
 67 66  2  0
 65 68  1  1
 69 66  1  0
 70 69  1  0
 71 70  1  0
 72 71  2  0
 70 73  1  1
 74 73  1  0
 75 74  2  0
 76 74  1  0
M  END
$$$$
5TML
     RDKit          3D

 79 79  0  0  0  0  0  0  0  0999 V2000
   31.1380   17.6640    7.1240 N   0  0  0  0  0  0  0  0  0  0  0  0
   30.0570   16.7020    6.9190 C   0  0  2  0  0  0  0  0  0  0  0  0
   29.6450   16.5850    5.4480 C   0  0  0  0  0  0  0  0  0  0  0  0
   29.3820   17.5940    4.7890 O   0  0  0  0  0  0  0  0  0  0  0  0
   28.8410   17.0790    7.7630 C   0  0  0  0  0  0  0  0  0  0  0  0
   27.5900   16.3000    7.4110 C   0  0  0  0  0  0  0  0  0  0  0  0
   26.4830   16.5330    8.4220 C   0  0  0  0  0  0  0  0  0  0  0  0
   26.7870   15.8700    9.7580 C   0  0  0  0  0  0  0  0  0  0  0  0
   25.7860   16.2390   10.7970 N   0  0  0  0  0  0  0  0  0  0  0  0
   29.5780   15.3430    4.9490 N   0  0  0  0  0  0  0  0  0  0  0  0
   29.2970   15.1080    3.5330 C   0  0  2  0  0  0  0  0  0  0  0  0
   27.8610   15.4850    3.1970 C   0  0  0  0  0  0  0  0  0  0  0  0
   27.5870   16.0440    2.1300 O   0  0  0  0  0  0  0  0  0  0  0  0
   29.5990   13.6420    3.1620 C   0  0  2  0  0  0  0  0  0  0  0  0
   31.1090   13.4030    3.0950 C   0  0  0  0  0  0  0  0  0  0  0  0
   28.9640   13.2690    1.8310 C   0  0  0  0  0  0  0  0  0  0  0  0
   31.4990   12.0940    2.4210 C   0  0  0  0  0  0  0  0  0  0  0  0
   26.9250   15.1890    4.0970 N   0  0  0  0  0  0  0  0  0  0  0  0
   25.5190   15.4680    3.8220 C   0  0  2  0  0  0  0  0  0  0  0  0
   25.2910   16.9360    3.4790 C   0  0  0  0  0  0  0  0  0  0  0  0
   24.4400   17.2490    2.6360 O   0  0  0  0  0  0  0  0  0  0  0  0
   24.6730   15.0460    5.0220 C   0  0  0  0  0  0  0  0  0  0  0  0
   23.1560   15.0150    4.8590 C   0  0  0  0  0  0  0  0  0  0  0  0
   22.7740   14.2950    3.5810 C   0  0  0  0  0  0  0  0  0  0  0  0
   22.5050   14.3510    6.0780 C   0  0  0  0  0  0  0  0  0  0  0  0
   26.0510   17.8430    4.1010 N   0  0  0  0  0  0  0  0  0  0  0  0
   25.9320   19.2640    3.7880 C   0  0  2  0  0  0  0  0  0  0  0  0
   26.1790   19.5240    2.3070 C   0  0  0  0  0  0  0  0  0  0  0  0
   25.4070   20.2350    1.6530 O   0  0  0  0  0  0  0  0  0  0  0  0
   26.9120   20.0750    4.6390 C   0  0  0  0  0  0  0  0  0  0  0  0
   26.5320   20.1790    6.0840 C   0  0  0  0  0  0  0  0  0  0  0  0
   27.4220   19.9250    7.1060 N   0  0  0  0  0  0  0  0  0  0  0  0
   25.3680   20.5300    6.6790 C   0  0  0  0  0  0  0  0  0  0  0  0
   26.8190   20.1010    8.2680 C   0  0  0  0  0  0  0  0  0  0  0  0
   25.5710   20.4670    8.0370 N   0  0  0  0  0  0  0  0  0  0  0  0
   27.2610   18.9540    1.7620 N   0  0  0  0  0  0  0  0  0  0  0  0
   27.5760   19.1500    0.3490 C   0  0  2  0  0  0  0  0  0  0  0  0
   26.4480   18.6580   -0.5410 C   0  0  0  0  0  0  0  0  0  0  0  0
   26.0750   19.3300   -1.5080 O   0  0  0  0  0  0  0  0  0  0  0  0
   28.8740   18.4260   -0.0210 C   0  0  0  0  0  0  0  0  0  0  0  0
   29.3850   18.7200   -1.4440 C   0  0  0  0  0  0  0  0  0  0  0  0
   30.5040   17.7690   -1.8520 C   0  0  0  0  0  0  0  0  0  0  0  0
   29.9940   16.4400   -2.1860 N   0  0  0  0  0  0  0  0  0  0  0  0
   30.7110   15.3210   -2.1180 C   0  0  0  0  0  0  0  0  0  0  0  0
   31.9730   15.3640   -1.7180 N   0  0  0  0  0  0  0  0  0  0  0  0
   30.1650   14.1550   -2.4390 N   0  0  0  0  0  0  0  0  0  0  0  0
   25.8850   17.4910   -0.2200 N   0  0  0  0  0  0  0  0  0  0  0  0
   24.9640   16.8250   -1.1350 C   0  0  2  0  0  0  0  0  0  0  0  0
   23.6150   17.5280   -1.2020 C   0  0  0  0  0  0  0  0  0  0  0  0
   22.9100   17.4190   -2.2140 O   0  0  0  0  0  0  0  0  0  0  0  0
   24.7900   15.3670   -0.7120 C   0  0  0  0  0  0  0  0  0  0  0  0
   26.1230   14.6630   -0.4560 C   0  0  0  0  0  0  0  0  0  0  0  0
   25.9130   13.1850   -0.1820 C   0  0  0  0  0  0  0  0  0  0  0  0
   27.0910   14.8790   -1.6250 C   0  0  0  0  0  0  0  0  0  0  0  0
   23.2420   18.2500   -0.1480 N   0  0  0  0  0  0  0  0  0  0  0  0
   21.9970   19.0060   -0.1340 C   0  0  2  0  0  0  0  0  0  0  0  0
   22.1030   20.3500   -0.8520 C   0  0  0  0  0  0  0  0  0  0  0  0
   21.0840   21.0340   -1.0000 O   0  0  0  0  0  0  0  0  0  0  0  0
   21.5380   19.2180    1.3110 C   0  0  0  0  0  0  0  0  0  0  0  0
   21.0300   17.9690    2.0310 C   0  0  0  0  0  0  0  0  0  0  0  0
   20.9720   18.2060    3.5260 C   0  0  0  0  0  0  0  0  0  0  0  0
   19.6600   17.5850    1.5010 C   0  0  0  0  0  0  0  0  0  0  0  0
   23.3020   20.7390   -1.2990 N   0  0  0  0  0  0  0  0  0  0  0  0
   23.5040   21.9710   -2.0530 C   0  0  2  0  0  0  0  0  0  0  0  0
   23.7370   21.7530   -3.5450 C   0  0  0  0  0  0  0  0  0  0  0  0
   23.5580   22.6950   -4.3230 O   0  0  0  0  0  0  0  0  0  0  0  0
   24.6910   22.7640   -1.4740 C   0  0  0  0  0  0  0  0  0  0  0  0
   24.4820   23.2870   -0.0420 C   0  0  0  0  0  0  0  0  0  0  0  0
   25.5430   24.2990    0.3910 C   0  0  0  0  0  0  0  0  0  0  0  0
   26.6660   23.9320    0.7490 O   0  0  0  0  0  0  0  0  0  0  0  0
   25.1890   25.5820    0.3530 N   0  0  0  0  0  0  0  0  0  0  0  0
   24.1150   20.5440   -3.9600 N   0  0  0  0  0  0  0  0  0  0  0  0
   24.3920   20.2320   -5.3660 C   0  0  2  0  0  0  0  0  0  0  0  0
   23.1230   20.1560   -6.2140 C   0  0  0  0  0  0  0  0  0  0  0  0
   23.0760   19.4330   -7.2140 O   0  0  0  0  0  0  0  0  0  0  0  0
   25.1560   18.9080   -5.4810 C   0  0  0  0  0  0  0  0  0  0  0  0
   26.6150   19.0280   -5.0640 C   0  0  0  0  0  0  0  0  0  0  0  0
   26.9610   19.9890   -4.3440 O   0  0  0  0  0  0  0  0  0  0  0  0
   27.4180   18.1540   -5.4560 O   0  0  0  0  0  0  0  0  0  0  0  0
  2  1  1  6
  3  2  1  0
  4  3  2  0
  5  2  1  0
  6  5  1  0
  7  6  1  0
  8  7  1  0
  9  8  1  0
 10  3  1  0
 11 10  1  1
 12 11  1  0
 13 12  2  0
 14 11  1  0
 15 14  1  0
 14 16  1  6
 17 15  1  0
 18 12  1  0
 19 18  1  0
 20 19  1  0
 21 20  2  0
 19 22  1  1
 23 22  1  0
 24 23  1  0
 25 23  1  0
 26 20  1  0
 27 26  1  0
 28 27  1  0
 29 28  2  0
 27 30  1  1
 31 30  1  0
 32 31  1  0
 33 31  2  0
 34 32  2  0
 35 34  1  0
 35 33  1  0
 36 28  1  0
 37 36  1  0
 38 37  1  0
 39 38  2  0
 37 40  1  6
 41 40  1  0
 42 41  1  0
 43 42  1  0
 44 43  1  0
 45 44  1  0
 46 44  2  0
 47 38  1  0
 48 47  1  0
 49 48  1  0
 50 49  2  0
 48 51  1  1
 52 51  1  0
 53 52  1  0
 54 52  1  0
 55 49  1  0
 56 55  1  0
 57 56  1  0
 58 57  2  0
 56 59  1  1
 60 59  1  0
 61 60  1  0
 62 60  1  0
 63 57  1  0
 64 63  1  0
 65 64  1  0
 66 65  2  0
 64 67  1  1
 68 67  1  0
 69 68  1  0
 70 69  2  0
 71 69  1  0
 72 65  1  0
 73 72  1  0
 74 73  1  0
 75 74  2  0
 73 76  1  1
 77 76  1  0
 78 77  2  0
 79 77  1  0
M  END
$$$$
7UJM
     RDKit          3D

 32 36  0  0  0  0  0  0  0  0999 V2000
  -19.0720   -9.2250   20.3320 C   0  0  0  0  0  0  0  0  0  0  0  0
  -19.1490   -8.1600   21.3890 C   0  0  2  0  0  0  0  0  0  0  0  0
  -18.8850   -8.7260   22.7360 C   0  0  0  0  0  0  0  0  0  0  0  0
  -19.9810   -8.2750   23.5690 C   0  0  0  0  0  0  0  0  0  0  0  0
  -20.7680   -7.3160   22.7250 C   0  0  0  0  0  0  0  0  0  0  0  0
  -20.4490   -7.6810   21.3580 N   0  0  0  0  0  0  0  0  0  0  0  0
  -20.5180   -6.5550   20.5740 C   0  0  0  0  0  0  0  0  0  0  0  0
  -20.1960   -6.8980   19.1180 C   0  0  0  0  0  0  0  0  0  0  0  0
  -18.9690   -6.3620   18.7470 O   0  0  0  0  0  0  0  0  0  0  0  0
  -18.4670   -6.6840   17.4730 C   0  0  0  0  0  0  0  0  0  0  0  0
  -19.1580   -6.5200   16.3560 C   0  0  0  0  0  0  0  0  0  0  0  0
  -18.5090   -6.8970   15.0250 C   0  0  0  0  0  0  0  0  0  0  0  0
  -17.0850   -7.2660   17.3600 C   0  0  0  0  0  0  0  0  0  0  0  0
  -16.5020   -7.5830   16.1930 C   0  0  0  0  0  0  0  0  0  0  0  0
  -17.2680   -7.3800   14.9510 C   0  0  0  0  0  0  0  0  0  0  0  0
  -16.6570   -7.7670   13.6720 C   0  0  2  0  0  0  0  0  0  0  0  0
  -15.8930   -8.9910   13.8390 C   0  0  2  0  0  0  0  0  0  0  0  0
  -16.6530  -10.1860   14.2090 C   0  0  0  0  0  0  0  0  0  0  0  0
  -16.0000  -11.3590   14.4530 C   0  0  0  0  0  0  0  0  0  0  0  0
  -14.6360  -11.5470   14.3560 C   0  0  1  0  0  0  0  0  0  0  0  0
  -14.0220  -12.7610   14.4930 O   0  0  0  0  0  0  0  0  0  0  0  0
  -13.9400  -10.4110   13.9480 C   0  0  0  0  0  0  0  0  0  0  0  0
  -14.5890   -9.0820   13.8410 C   0  0  1  0  0  0  0  0  0  0  0  0
  -13.7090   -7.9440   13.4570 C   0  0  0  0  0  0  0  0  0  0  0  0
  -14.4040   -6.6590   13.7280 C   0  0  0  0  0  0  0  0  0  0  0  0
  -15.7810   -6.7170   13.1340 C   0  0  2  0  0  0  0  0  0  0  0  0
  -16.4160   -5.3400   13.2280 C   0  0  0  0  0  0  0  0  0  0  0  0
  -16.2110   -4.5890   14.3340 C   0  0  0  0  0  0  0  0  0  0  0  0
  -16.7670   -3.3380   14.4480 C   0  0  0  0  0  0  0  0  0  0  0  0
  -17.5000   -2.8460   13.4090 C   0  0  0  0  0  0  0  0  0  0  0  0
  -17.6590   -3.5940   12.2760 C   0  0  0  0  0  0  0  0  0  0  0  0
  -17.1420   -4.8450   12.1810 C   0  0  0  0  0  0  0  0  0  0  0  0
  2  1  1  6
  3  2  1  0
  4  3  1  0
  5  4  1  0
  6  2  1  0
  6  5  1  0
  7  6  1  0
  8  7  1  0
  9  8  1  0
 10  9  1  0
 11 10  1  0
 12 11  1  0
 13 10  1  0
 14 13  1  0
 15 14  1  0
 15 12  1  0
 16 15  1  1
 17 16  1  0
 17 18  1  1
 19 18  1  0
 20 19  1  0
 20 21  1  6
 22 20  1  0
 23 22  1  6
 23 17  1  0
 24 23  1  0
 25 24  1  0
 26 16  1  0
 26 25  1  0
 26 27  1  1
 28 27  1  0
 29 28  1  0
 30 29  1  0
 31 30  1  0
 32 31  1  0
 32 27  1  0
M  END
$$$$
8DUI
     RDKit          3D

 33 37  0  0  0  0  0  0  0  0999 V2000
   43.1630   -5.0490   15.3490 N   0  0  0  0  0  0  0  0  0  0  0  0
   43.0440   -0.7570   15.8510 C   0  0  0  0  0  0  0  0  0  0  0  0
   43.0570   -2.2940   15.8200 C   0  0  0  0  0  0  0  0  0  0  0  0
   44.1320   -2.9370   16.0950 C   0  0  0  0  0  0  0  0  0  0  0  0
   41.7770   -2.9730   15.4440 C   0  0  0  0  0  0  0  0  0  0  0  0
   41.7670   -4.5290   15.3890 C   0  0  1  0  0  0  0  0  0  0  0  0
   43.4410   -6.2060   14.5130 C   0  0  1  0  0  0  0  0  0  0  0  0
   41.1210   -6.3040   11.5340 C   0  0  0  0  0  0  0  0  0  0  0  0
   41.0290   -8.5060   12.5960 C   0  0  0  0  0  0  0  0  0  0  0  0
   44.3320   -4.9170   17.5370 C   0  0  0  0  0  0  0  0  0  0  0  0
   44.6110   -5.8130   20.2050 C   0  0  0  0  0  0  0  0  0  0  0  0
   45.4810   -6.3730   19.0990 C   0  0  0  0  0  0  0  0  0  0  0  0
   45.3650   -5.9520   17.8610 C   0  0  0  0  0  0  0  0  0  0  0  0
   45.8780   -7.0810   23.4040 C   0  0  0  0  0  0  0  0  0  0  0  0
   46.8890   -6.2740   25.3750 C   0  0  0  0  0  0  0  0  0  0  0  0
   40.3640   -5.0660   15.0210 C   0  0  0  0  0  0  0  0  0  0  0  0
   45.3810   -2.1280   16.4470 C   0  0  0  0  0  0  0  0  0  0  0  0
   42.4120   -6.7900   13.5670 C   0  0  1  0  0  0  0  0  0  0  0  0
   42.0790   -5.9340   12.6310 C   0  0  0  0  0  0  0  0  0  0  0  0
   40.6280   -7.5010   11.5310 C   0  0  0  0  0  0  0  0  0  0  0  0
   41.8770   -8.1940   13.5450 C   0  0  0  0  0  0  0  0  0  0  0  0
   43.5740   -4.4310   18.4850 C   0  0  0  0  0  0  0  0  0  0  0  0
   43.7230   -4.9140   19.9070 C   0  0  0  0  0  0  0  0  0  0  0  0
   45.3710   -0.8370   16.4800 C   0  0  0  0  0  0  0  0  0  0  0  0
   45.8630   -6.9340   21.8780 C   0  0  0  0  0  0  0  0  0  0  0  0
   45.7930   -4.8380   23.8690 C   0  0  0  0  0  0  0  0  0  0  0  0
   40.7510   -5.0630   16.4320 C   0  0  0  0  0  0  0  0  0  0  0  0
   44.1210   -0.1030   16.1620 C   0  0  0  0  0  0  0  0  0  0  0  0
   44.2160   -4.4290   16.1150 C   0  0  1  0  0  0  0  0  0  0  0  0
   46.6440   -5.9920   23.9700 N   0  0  0  0  0  0  0  0  0  0  0  0
   44.4970   -6.6230   14.4350 O   0  0  0  0  0  0  0  0  0  0  0  0
   44.1390    1.2330   16.2020 O   0  0  0  0  0  0  0  0  0  0  0  0
   44.7140   -6.2510   21.5260 O   0  0  0  0  0  0  0  0  0  0  0  0
  3  2  1  0
  4  3  1  0
  5  3  1  0
  6  5  1  1
  6  1  1  0
  7  1  1  0
 12 11  1  0
 13 12  1  0
 13 10  1  0
 16  6  1  0
 17  4  1  0
 18  7  1  0
 18 19  1  6
 19  8  1  0
 20  9  1  0
 20  8  1  0
 21 18  1  0
 21  9  1  0
 22 10  1  0
 23 22  1  0
 23 11  1  0
 24 17  1  0
 25 14  1  0
 27 16  1  0
 27  6  1  0
 28  2  1  0
 28 24  1  0
 29  1  1  0
 29  4  1  0
 29 10  1  1
 30 15  1  0
 30 14  1  0
 30 26  1  0
  7 31  1  6
 32 28  1  0
 33 11  1  0
 33 25  1  0
M  END
$$$$
3ERD
     RDKit          3D

 20 21  0  0  0  0  0  0  0  0999 V2000
    5.3970   -3.0840   -6.1700 C   0  0  0  0  0  0  0  0  0  0  0  0
    5.8180   -2.0660   -5.1530 C   0  0  0  0  0  0  0  0  0  0  0  0
    5.0590   -0.7450   -5.2310 C   0  0  0  0  0  0  0  0  0  0  0  0
    3.5590   -0.8980   -5.0640 C   0  0  0  0  0  0  0  0  0  0  0  0
    2.9720   -0.9970   -3.7920 C   0  0  0  0  0  0  0  0  0  0  0  0
    1.5760   -1.1710   -3.6570 C   0  0  0  0  0  0  0  0  0  0  0  0
    0.7810   -1.2440   -4.8000 C   0  0  0  0  0  0  0  0  0  0  0  0
   -0.5870   -1.4440   -4.7290 O   0  0  0  0  0  0  0  0  0  0  0  0
    1.3510   -1.1440   -6.0710 C   0  0  0  0  0  0  0  0  0  0  0  0
    2.7290   -0.9730   -6.1850 C   0  0  0  0  0  0  0  0  0  0  0  0
    5.6330    0.4260   -5.4430 C   0  0  0  0  0  0  0  0  0  0  0  0
    7.1080    0.5490   -5.8150 C   0  0  0  0  0  0  0  0  0  0  0  0
    7.5360    0.3040   -7.1250 C   0  0  0  0  0  0  0  0  0  0  0  0
    8.8860    0.4380   -7.4820 C   0  0  0  0  0  0  0  0  0  0  0  0
    9.8190    0.8170   -6.5220 C   0  0  0  0  0  0  0  0  0  0  0  0
   11.1610    0.9440   -6.8290 O   0  0  0  0  0  0  0  0  0  0  0  0
    9.4220    1.0690   -5.2040 C   0  0  0  0  0  0  0  0  0  0  0  0
    8.0630    0.9280   -4.8680 C   0  0  0  0  0  0  0  0  0  0  0  0
    4.8990    1.7680   -5.4010 C   0  0  0  0  0  0  0  0  0  0  0  0
    4.9700    2.4780   -4.0720 C   0  0  0  0  0  0  0  0  0  0  0  0
  2  1  1  0
  3  2  1  0
  4  3  1  0
  5  4  1  0
  6  5  1  0
  7  6  1  0
  8  7  1  0
  9  7  1  0
 10  9  1  0
 10  4  1  0
 11  3  1  0
 12 11  1  0
 13 12  1  0
 14 13  1  0
 15 14  1  0
 16 15  1  0
 17 15  1  0
 18 12  1  0
 18 17  1  0
 19 11  1  0
 20 19  1  0
M  END
$$$$
5DKG
     RDKit          3D

 27 29  0  0  0  0  0  0  0  0999 V2000
  -17.0780  -28.0910   -5.2730 C   0  0  0  0  0  0  0  0  0  0  0  0
  -18.2490  -27.3490   -5.7380 C   0  0  2  0  0  0  0  0  0  0  0  0
  -18.8580  -26.3480   -4.9310 C   0  0  1  0  0  0  0  0  0  0  0  0
  -20.3430  -25.9330   -5.1280 C   0  0  0  0  0  0  0  0  0  0  0  0
  -21.3540  -26.8800   -5.1150 C   0  0  0  0  0  0  0  0  0  0  0  0
  -22.6440  -26.5000   -5.2860 C   0  0  0  0  0  0  0  0  0  0  0  0
  -22.9550  -25.1500   -5.4620 C   0  0  0  0  0  0  0  0  0  0  0  0
  -24.2680  -24.7660   -5.6310 O   0  0  0  0  0  0  0  0  0  0  0  0
  -21.9420  -24.1970   -5.4660 C   0  0  0  0  0  0  0  0  0  0  0  0
  -20.6630  -24.5730   -5.3010 C   0  0  0  0  0  0  0  0  0  0  0  0
  -18.1690  -25.7730   -3.6820 C   0  0  0  0  0  0  0  0  0  0  0  0
  -16.9050  -25.2420   -3.7270 C   0  0  0  0  0  0  0  0  0  0  0  0
  -16.2900  -24.7090   -2.5310 C   0  0  0  0  0  0  0  0  0  0  0  0
  -16.9650  -24.7060   -1.3730 C   0  0  0  0  0  0  0  0  0  0  0  0
  -16.4080  -24.2140   -0.2920 O   0  0  0  0  0  0  0  0  0  0  0  0
  -18.2460  -25.2240   -1.3220 C   0  0  0  0  0  0  0  0  0  0  0  0
  -18.8530  -25.7630   -2.5030 C   0  0  0  0  0  0  0  0  0  0  0  0
  -18.9970  -28.0000   -6.9100 C   0  0  0  0  0  0  0  0  0  0  0  0
  -19.1990  -29.4230   -6.8890 C   0  0  0  0  0  0  0  0  0  0  0  0
  -19.8400  -30.0380   -7.8880 C   0  0  0  0  0  0  0  0  0  0  0  0
  -20.3450  -29.2640   -9.0360 C   0  0  0  0  0  0  0  0  0  0  0  0
  -21.1210  -29.9870  -10.2500 C   0  0  2  0  0  0  0  0  0  0  0  0
  -21.4740  -31.4270   -9.9170 C   0  0  0  0  0  0  0  0  0  0  0  0
  -20.2880  -30.0180  -11.4200 C   0  0  0  0  0  0  0  0  0  0  0  0
  -22.3550  -29.2470  -10.5260 C   0  0  0  0  0  0  0  0  0  0  0  0
  -20.1380  -27.8780   -9.0530 C   0  0  0  0  0  0  0  0  0  0  0  0
  -19.4740  -27.2450   -8.0070 C   0  0  0  0  0  0  0  0  0  0  0  0
  2  1  1  1
  3  2  1  0
  3  4  1  1
  5  4  1  0
  6  5  1  0
  7  6  1  0
  8  7  1  0
  9  7  1  0
 10  9  1  0
 10  4  1  0
 11  3  1  0
 12 11  1  0
 13 12  1  0
 14 13  1  0
 15 14  1  0
 16 14  1  0
 17 16  1  0
 17 11  1  0
 18  2  1  0
 19 18  1  0
 20 19  1  0
 21 20  1  0
 22 21  1  0
 22 23  1  1
 24 22  1  0
 25 22  1  0
 26 21  1  0
 27 26  1  0
 27 18  1  0
M  END
$$$$
8AQE
     RDKit          3D

 42 43  0  0  0  0  0  0  0  0999 V2000
   28.2210   -7.9260   14.6000 N   0  0  0  0  0  0  0  0  0  0  0  0
   27.2870   -9.0920   14.5910 C   0  0  2  0  0  0  0  0  0  0  0  0
   27.9150  -10.3280   13.9460 C   0  0  0  0  0  0  0  0  0  0  0  0
   28.7690  -10.2190   13.0710 O   0  0  0  0  0  0  0  0  0  0  0  0
   25.9570   -8.7240   13.9000 C   0  0  0  0  0  0  0  0  0  0  0  0
   26.1120   -8.0690   12.5490 C   0  0  0  0  0  0  0  0  0  0  0  0
   26.2140   -6.6860   12.4360 C   0  0  0  0  0  0  0  0  0  0  0  0
   26.1310   -8.8320   11.3840 C   0  0  0  0  0  0  0  0  0  0  0  0
   26.3510   -6.0780   11.1960 C   0  0  0  0  0  0  0  0  0  0  0  0
   26.2640   -8.2270   10.1390 C   0  0  0  0  0  0  0  0  0  0  0  0
   26.3720   -6.8480   10.0460 C   0  0  0  0  0  0  0  0  0  0  0  0
   27.5140  -11.5510   14.3590 N   0  0  0  0  0  0  0  0  0  0  0  0
   28.0570  -12.7770   13.7700 C   0  0  2  0  0  0  0  0  0  0  0  0
   27.4970  -13.1190   12.3770 C   0  0  0  0  0  0  0  0  0  0  0  0
   26.4400  -12.6540   12.0060 O   0  0  0  0  0  0  0  0  0  0  0  0
   27.6700  -13.8470   14.8010 C   0  0  0  0  0  0  0  0  0  0  0  0
   26.3900  -13.3230   15.4140 C   0  0  0  0  0  0  0  0  0  0  0  0
   26.5520  -11.8150   15.4410 C   0  0  0  0  0  0  0  0  0  0  0  0
   28.2380  -13.9320   11.6220 N   0  0  0  0  0  0  0  0  0  0  0  0
   27.8760  -14.2680   10.2660 C   0  0  2  0  0  0  0  0  0  0  0  0
   26.7520  -15.3180   10.2620 C   0  0  0  0  0  0  0  0  0  0  0  0
   26.8030  -16.2950   10.9990 O   0  0  0  0  0  0  0  0  0  0  0  0
   29.0960  -14.7900    9.5120 C   0  0  0  0  0  0  0  0  0  0  0  0
   25.7240  -15.0780    9.4400 N   0  0  0  0  0  0  0  0  0  0  0  0
   24.6390  -16.0330    9.1100 C   0  0  1  0  0  0  0  0  0  0  0  0
   23.3420  -15.7140    9.8610 C   0  0  1  0  0  0  0  0  0  0  0  0
   23.5030  -15.8610   11.3600 C   0  0  0  0  0  0  0  0  0  0  0  0
   23.0000  -14.3230    9.5320 O   0  0  0  0  0  0  0  0  0  0  0  0
   21.5720  -13.6810    9.9120 P   0  0  0  0  0  0  0  0  0  0  0  0
   21.4900  -12.4260    9.0370 O   0  0  0  0  0  0  0  0  0  0  0  0
   21.6190  -13.3680   11.3850 O   0  0  0  0  0  0  0  0  0  0  0  0
   20.5050  -14.6910    9.5690 O   0  0  0  0  0  0  0  0  0  0  0  0
   24.4400  -16.0280    7.5950 C   0  0  0  0  0  0  0  0  0  0  0  0
   24.8610  -15.0440    6.9510 O   0  0  0  0  0  0  0  0  0  0  0  0
   23.8380  -17.0850    7.0580 N   0  0  0  0  0  0  0  0  0  0  0  0
   23.5600  -17.1450    5.6200 C   0  0  2  0  0  0  0  0  0  0  0  0
   22.1090  -17.4570    5.3380 C   0  0  0  0  0  0  0  0  0  0  0  0
   21.3620  -17.8950    6.2090 O   0  0  0  0  0  0  0  0  0  0  0  0
   24.4410  -18.1830    4.9130 C   0  0  0  0  0  0  0  0  0  0  0  0
   25.9050  -17.8300    5.1190 C   0  0  0  0  0  0  0  0  0  0  0  0
   24.1470  -19.6050    5.4180 C   0  0  0  0  0  0  0  0  0  0  0  0
   21.6760  -17.3110    4.1910 O   0  0  0  0  0  0  0  0  0  0  0  0
  2  1  1  6
  3  2  1  0
  4  3  2  0
  5  2  1  0
  6  5  1  0
  7  6  2  0
  8  6  1  0
  9  7  1  0
 10  8  2  0
 11 10  1  0
 11  9  2  0
 12  3  1  0
 13 12  1  0
 13 14  1  6
 15 14  2  0
 16 13  1  0
 17 16  1  0
 18 17  1  0
 18 12  1  0
 19 14  1  0
 20 19  1  0
 21 20  1  0
 22 21  2  0
 20 23  1  6
 24 21  1  0
 25 24  1  6
 26 25  1  0
 26 27  1  1
 28 26  1  0
 29 28  1  0
 30 29  1  0
 31 29  1  0
 32 29  1  0
 33 25  1  0
 34 33  1  0
 35 33  1  0
 36 35  1  1
 37 36  1  0
 38 37  2  0
 39 36  1  0
 40 39  1  0
 41 39  1  0
 42 37  1  0
M  END
$$$$
1XP9
     RDKit          3D

 33 37  0  0  0  0  0  0  0  0999 V2000
   31.1360   -0.2850   28.6940 C   0  0  2  0  0  0  0  0  0  0  0  0
   31.2950   -1.7190   28.1530 C   0  0  1  0  0  0  0  0  0  0  0  0
   30.0630   -2.4370   28.4040 O   0  0  0  0  0  0  0  0  0  0  0  0
   28.8690   -1.9850   27.9520 C   0  0  0  0  0  0  0  0  0  0  0  0
   27.9440   -2.9910   27.6600 C   0  0  0  0  0  0  0  0  0  0  0  0
   26.6930   -2.6550   27.1630 C   0  0  0  0  0  0  0  0  0  0  0  0
   26.3510   -1.3020   27.0590 C   0  0  2  0  0  0  0  0  0  0  0  0
   25.1290   -1.0050   26.5700 O   0  0  0  0  0  0  0  0  0  0  0  0
   27.2910   -0.3120   27.3510 C   0  0  0  0  0  0  0  0  0  0  0  0
   28.5930   -0.6260   27.7340 C   0  0  1  0  0  0  0  0  0  0  0  0
   29.6230    0.4540   28.0710 S   0  0  0  0  0  0  0  0  0  0  0  0
   32.4330    0.4380   28.4150 C   0  0  0  0  0  0  0  0  0  0  0  0
   32.6620    1.2840   27.3150 C   0  0  0  0  0  0  0  0  0  0  0  0
   33.9100    1.8730   27.1470 C   0  0  0  0  0  0  0  0  0  0  0  0
   34.9420    1.6480   28.0870 C   0  0  0  0  0  0  0  0  0  0  0  0
   36.1450    2.2380   27.9740 O   0  0  0  0  0  0  0  0  0  0  0  0
   34.7100    0.8310   29.2040 C   0  0  0  0  0  0  0  0  0  0  0  0
   33.4530    0.2370   29.3560 C   0  0  0  0  0  0  0  0  0  0  0  0
   31.6520   -1.9240   26.6840 C   0  0  0  0  0  0  0  0  0  0  0  0
   32.4950   -2.9860   26.3360 C   0  0  0  0  0  0  0  0  0  0  0  0
   32.8720   -3.2650   25.0010 C   0  0  0  0  0  0  0  0  0  0  0  0
   32.4110   -2.4520   23.9480 C   0  0  0  0  0  0  0  0  0  0  0  0
   31.5630   -1.3830   24.3090 C   0  0  0  0  0  0  0  0  0  0  0  0
   31.1840   -1.1260   25.6300 C   0  0  0  0  0  0  0  0  0  0  0  0
   32.7620   -2.6460   22.6350 O   0  0  0  0  0  0  0  0  0  0  0  0
   33.3630   -3.9180   22.2850 C   0  0  0  0  0  0  0  0  0  0  0  0
   33.8170   -4.1220   20.7900 C   0  0  2  0  0  0  0  0  0  0  0  0
   34.6270   -2.8600   20.5950 C   0  0  0  0  0  0  0  0  0  0  0  0
   32.7160   -4.2020   19.7730 N   0  0  0  0  0  0  0  0  0  0  0  0
   33.0520   -3.9170   18.3300 C   0  0  0  0  0  0  0  0  0  0  0  0
   31.7550   -3.3470   17.6770 C   0  0  0  0  0  0  0  0  0  0  0  0
   30.7560   -3.3120   18.8490 C   0  0  0  0  0  0  0  0  0  0  0  0
   31.6690   -3.2350   20.0840 C   0  0  0  0  0  0  0  0  0  0  0  0
  2  1  1  0
  3  2  1  0
  4  3  1  0
  5  4  1  0
  6  5  1  0
  7  6  1  0
  7  8  1  6
  9  7  1  0
 10  9  1  1
 10  4  1  0
 11 10  1  0
 11  1  1  0
  1 12  1  6
 13 12  1  0
 14 13  1  0
 15 14  1  0
 16 15  1  0
 17 15  1  0
 18 12  1  0
 18 17  1  0
  2 19  1  6
 20 19  1  0
 21 20  1  0
 22 21  1  0
 23 22  1  0
 24 23  1  0
 24 19  1  0
 25 22  1  0
 26 25  1  0
 27 26  1  0
 27 28  1  6
 29 27  1  0
 30 29  1  0
 31 30  1  0
 32 31  1  0
 33 32  1  0
 33 29  1  0
M  END
$$$$
2IOK
     RDKit          3D

 30 33  0  0  0  0  0  0  0  0999 V2000
   15.8130   35.8830   49.8880 C   0  0  0  0  0  0  0  0  0  0  0  0
   14.7030   36.0910   50.7260 C   0  0  0  0  0  0  0  0  0  0  0  0
   13.4320   36.2650   50.1780 C   0  0  0  0  0  0  0  0  0  0  0  0
   13.2600   36.2310   48.7960 C   0  0  0  0  0  0  0  0  0  0  0  0
   12.0210   36.3920   48.2900 O   0  0  0  0  0  0  0  0  0  0  0  0
   14.3680   36.0660   47.9580 C   0  0  0  0  0  0  0  0  0  0  0  0
   15.6420   35.8330   48.5130 C   0  0  0  0  0  0  0  0  0  0  0  0
   17.1660   35.7170   50.5440 C   0  0  0  0  0  0  0  0  0  0  0  0
   18.3040   35.7050   49.5170 C   0  0  0  0  0  0  0  0  0  0  0  0
   19.6700   35.7650   50.2260 C   0  0  1  0  0  0  0  0  0  0  0  0
   20.2190   37.1960   50.2740 C   0  0  0  0  0  0  0  0  0  0  0  0
   19.5080   35.2640   51.6000 N   0  0  0  0  0  0  0  0  0  0  0  0
   19.7070   33.9740   51.8590 C   0  0  0  0  0  0  0  0  0  0  0  0
   20.0400   33.1950   50.9300 O   0  0  0  0  0  0  0  0  0  0  0  0
   19.5540   33.4560   53.2550 C   0  0  0  0  0  0  0  0  0  0  0  0
   18.6170   34.2690   54.1110 C   0  0  0  0  0  0  0  0  0  0  0  0
   18.9210   35.1530   55.1780 C   0  0  0  0  0  0  0  0  0  0  0  0
   17.7520   35.6460   55.6650 N   0  0  0  0  0  0  0  0  0  0  0  0
   16.7130   35.1350   54.9380 C   0  0  0  0  0  0  0  0  0  0  0  0
   15.3360   35.3240   55.0830 C   0  0  0  0  0  0  0  0  0  0  0  0
   14.4810   34.6600   54.1970 C   0  0  0  0  0  0  0  0  0  0  0  0
   15.0160   33.8390   53.1800 C   0  0  0  0  0  0  0  0  0  0  0  0
   16.3820   33.6210   53.0720 C   0  0  0  0  0  0  0  0  0  0  0  0
   17.2400   34.3160   53.9610 C   0  0  2  0  0  0  0  0  0  0  0  0
   20.2230   35.5800   55.7620 C   0  0  0  0  0  0  0  0  0  0  0  0
   21.4750   35.2110   55.2730 C   0  0  0  0  0  0  0  0  0  0  0  0
   22.6520   35.6750   55.8940 C   0  0  0  0  0  0  0  0  0  0  0  0
   22.5730   36.4840   57.0220 C   0  0  0  0  0  0  0  0  0  0  0  0
   21.3200   36.8740   57.5120 C   0  0  0  0  0  0  0  0  0  0  0  0
   20.1570   36.4350   56.8730 C   0  0  0  0  0  0  0  0  0  0  0  0
  2  1  1  0
  3  2  1  0
  4  3  1  0
  5  4  1  0
  6  4  1  0
  7  6  1  0
  7  1  1  0
  8  1  1  0
  9  8  1  0
 10  9  1  0
 10 11  1  1
 12 10  1  0
 13 12  1  0
 14 13  1  0
 15 13  1  0
 16 15  1  0
 17 16  1  0
 18 17  1  0
 19 18  1  0
 20 19  1  0
 21 20  1  0
 22 21  1  0
 23 22  1  0
 24 23  1  1
 24 16  1  0
 24 19  1  0
 25 17  1  0
 26 25  1  0
 27 26  1  0
 28 27  1  0
 29 28  1  0
 30 29  1  0
 30 25  1  0
M  END
$$$$
5KCC
     RDKit          3D

 79 79  0  0  0  0  0  0  0  0999 V2000
    7.4560   -1.7610   35.2950 N   0  0  0  0  0  0  0  0  0  0  0  0
    7.5500   -0.3510   34.9390 C   0  0  2  0  0  0  0  0  0  0  0  0
    6.5430    0.4800   35.7320 C   0  0  0  0  0  0  0  0  0  0  0  0
    5.3890    0.0840   35.8940 O   0  0  0  0  0  0  0  0  0  0  0  0
    7.3320   -0.1660   33.4360 C   0  0  0  0  0  0  0  0  0  0  0  0
    7.5960    1.2440   32.9360 C   0  0  0  0  0  0  0  0  0  0  0  0
    7.4410    1.3320   31.4260 C   0  0  0  0  0  0  0  0  0  0  0  0
    8.4490    0.4490   30.7070 C   0  0  0  0  0  0  0  0  0  0  0  0
    8.3160    0.5500   29.2270 N   0  0  0  0  0  0  0  0  0  0  0  0
    6.9880    1.6330   36.2230 N   0  0  0  0  0  0  0  0  0  0  0  0
    6.1610    2.4840   37.0760 C   0  0  2  0  0  0  0  0  0  0  0  0
    4.9500    3.0600   36.3430 C   0  0  0  0  0  0  0  0  0  0  0  0
    3.8290    3.0140   36.8520 O   0  0  0  0  0  0  0  0  0  0  0  0
    6.9810    3.6450   37.6630 C   0  0  2  0  0  0  0  0  0  0  0  0
    8.1420    3.1020   38.4980 C   0  0  0  0  0  0  0  0  0  0  0  0
    6.0970    4.5540   38.5040 C   0  0  0  0  0  0  0  0  0  0  0  0
    8.8890    4.1630   39.2580 C   0  0  0  0  0  0  0  0  0  0  0  0
    5.1830    3.6020   35.1510 N   0  0  0  0  0  0  0  0  0  0  0  0
    4.1140    4.1750   34.3380 C   0  0  2  0  0  0  0  0  0  0  0  0
    3.0510    3.1280   34.0110 C   0  0  0  0  0  0  0  0  0  0  0  0
    1.8650    3.4410   33.9020 O   0  0  0  0  0  0  0  0  0  0  0  0
    4.6870    4.7730   33.0510 C   0  0  0  0  0  0  0  0  0  0  0  0
    3.6920    5.3320   32.0320 C   0  0  0  0  0  0  0  0  0  0  0  0
    2.8390    6.4250   32.6520 C   0  0  0  0  0  0  0  0  0  0  0  0
    4.4200    5.8520   30.8050 C   0  0  0  0  0  0  0  0  0  0  0  0
    3.4940    1.8830   33.8660 N   0  0  0  0  0  0  0  0  0  0  0  0
    2.6070    0.7550   33.6050 C   0  0  2  0  0  0  0  0  0  0  0  0
    1.5890    0.5750   34.7270 C   0  0  0  0  0  0  0  0  0  0  0  0
    0.3870    0.4630   34.4800 O   0  0  0  0  0  0  0  0  0  0  0  0
    3.4320   -0.5250   33.4310 C   0  0  0  0  0  0  0  0  0  0  0  0
    2.6120   -1.7580   33.2110 C   0  0  0  0  0  0  0  0  0  0  0  0
    2.5060   -2.3690   31.9800 N   0  0  0  0  0  0  0  0  0  0  0  0
    1.8720   -2.5030   34.0660 C   0  0  0  0  0  0  0  0  0  0  0  0
    1.7280   -3.4320   32.0840 C   0  0  0  0  0  0  0  0  0  0  0  0
    1.3300   -3.5360   33.3390 N   0  0  0  0  0  0  0  0  0  0  0  0
    2.0810    0.5550   35.9610 N   0  0  0  0  0  0  0  0  0  0  0  0
    1.2470    0.2700   37.1220 C   0  0  2  0  0  0  0  0  0  0  0  0
    0.3200    1.4290   37.4760 C   0  0  0  0  0  0  0  0  0  0  0  0
   -0.8320    1.2160   37.8530 O   0  0  0  0  0  0  0  0  0  0  0  0
    2.1230   -0.0810   38.3270 C   0  0  0  0  0  0  0  0  0  0  0  0
    0.8250    2.6530   37.3560 N   0  0  0  0  0  0  0  0  0  0  0  0
    0.0500    3.8370   37.7150 C   0  0  2  0  0  0  0  0  0  0  0  0
   -1.1410    4.0360   36.7800 C   0  0  0  0  0  0  0  0  0  0  0  0
   -2.1950    4.5140   37.1980 O   0  0  0  0  0  0  0  0  0  0  0  0
    0.9420    5.0800   37.7110 C   0  0  0  0  0  0  0  0  0  0  0  0
    2.0810    5.0620   38.7340 C   0  0  0  0  0  0  0  0  0  0  0  0
    2.8260    6.3880   38.7560 C   0  0  0  0  0  0  0  0  0  0  0  0
    1.5540    4.7170   40.1200 C   0  0  0  0  0  0  0  0  0  0  0  0
   -0.9680    3.6640   35.5160 N   0  0  0  0  0  0  0  0  0  0  0  0
   -2.0590    3.7010   34.5480 C   0  0  2  0  0  0  0  0  0  0  0  0
   -3.0670    2.5930   34.8240 C   0  0  0  0  0  0  0  0  0  0  0  0
   -4.2410    2.7020   34.4710 O   0  0  0  0  0  0  0  0  0  0  0  0
   -1.5220    3.5640   33.1210 C   0  0  0  0  0  0  0  0  0  0  0  0
   -0.8780    4.7850   32.4620 C   0  0  0  0  0  0  0  0  0  0  0  0
   -0.1490    4.3780   31.1910 C   0  0  0  0  0  0  0  0  0  0  0  0
   -1.9310    5.8360   32.1570 C   0  0  0  0  0  0  0  0  0  0  0  0
   -2.5960    1.5280   35.4640 N   0  0  0  0  0  0  0  0  0  0  0  0
   -3.3810    0.3100   35.6230 C   0  0  2  0  0  0  0  0  0  0  0  0
   -4.1750    0.2790   36.9270 C   0  0  0  0  0  0  0  0  0  0  0  0
   -4.9540   -0.6460   37.1620 O   0  0  0  0  0  0  0  0  0  0  0  0
   -2.4580   -0.9080   35.5460 C   0  0  0  0  0  0  0  0  0  0  0  0
   -3.0910   -2.1410   34.9300 C   0  0  0  0  0  0  0  0  0  0  0  0
   -2.1100   -3.2890   34.7970 C   0  0  0  0  0  0  0  0  0  0  0  0
   -1.1370   -3.3770   35.5450 O   0  0  0  0  0  0  0  0  0  0  0  0
   -2.3580   -4.1730   33.8370 N   0  0  0  0  0  0  0  0  0  0  0  0
   -3.9790    1.2870   37.7720 N   0  0  0  0  0  0  0  0  0  0  0  0
   -4.6810    1.3520   39.0510 C   0  0  2  0  0  0  0  0  0  0  0  0
   -6.1790    1.5510   38.8340 C   0  0  0  0  0  0  0  0  0  0  0  0
   -6.5890    2.3210   37.9630 O   0  0  0  0  0  0  0  0  0  0  0  0
   -4.1160    2.4760   39.9230 C   0  0  0  0  0  0  0  0  0  0  0  0
   -4.6050    2.4020   41.3580 C   0  0  0  0  0  0  0  0  0  0  0  0
   -4.9270    1.2870   41.8200 O   0  0  0  0  0  0  0  0  0  0  0  0
   -4.6640    3.4570   42.0240 O   0  0  0  0  0  0  0  0  0  0  0  0
   -6.9830    0.8490   39.6310 N   0  0  0  0  0  0  0  0  0  0  0  0
   -8.4390    0.8410   39.4870 C   0  0  2  0  0  0  0  0  0  0  0  0
   -8.8580    0.4080   38.0850 C   0  0  0  0  0  0  0  0  0  0  0  0
   -8.6900   -0.7520   37.7080 O   0  0  0  0  0  0  0  0  0  0  0  0
   -9.0300    2.2170   39.8090 C   0  0  0  0  0  0  0  0  0  0  0  0
  -10.4250    2.2460   39.5530 O   0  0  0  0  0  0  0  0  0  0  0  0
  2  1  1  6
  3  2  1  0
  4  3  2  0
  5  2  1  0
  6  5  1  0
  7  6  1  0
  8  7  1  0
  9  8  1  0
 10  3  1  0
 11 10  1  6
 12 11  1  0
 13 12  2  0
 14 11  1  0
 15 14  1  0
 14 16  1  1
 17 15  1  0
 18 12  1  0
 19 18  1  0
 20 19  1  0
 21 20  2  0
 19 22  1  6
 23 22  1  0
 24 23  1  0
 25 23  1  0
 26 20  1  0
 27 26  1  0
 28 27  1  0
 29 28  2  0
 27 30  1  1
 31 30  1  0
 32 31  1  0
 33 31  2  0
 34 32  2  0
 35 34  1  0
 35 33  1  0
 36 28  1  0
 37 36  1  0
 38 37  1  0
 39 38  2  0
 37 40  1  1
 41 38  1  0
 42 41  1  0
 43 42  1  0
 44 43  2  0
 42 45  1  6
 46 45  1  0
 47 46  1  0
 48 46  1  0
 49 43  1  0
 50 49  1  0
 51 50  1  0
 52 51  2  0
 50 53  1  6
 54 53  1  0
 55 54  1  0
 56 54  1  0
 57 51  1  0
 58 57  1  0
 59 58  1  0
 60 59  2  0
 58 61  1  1
 62 61  1  0
 63 62  1  0
 64 63  2  0
 65 63  1  0
 66 59  1  0
 67 66  1  0
 68 67  1  0
 69 68  2  0
 67 70  1  1
 71 70  1  0
 72 71  2  0
 73 71  1  0
 74 68  1  0
 75 74  1  0
 76 75  1  0
 77 76  2  0
 75 78  1  6
 79 78  1  0
M  END
$$$$
6WOK
     RDKit          3D

 26 29  0  0  0  0  0  0  0  0999 V2000
   21.5490    2.1420   38.1970 C   0  0  0  0  0  0  0  0  0  0  0  0
   21.4320    3.4260   37.4170 C   0  0  2  0  0  0  0  0  0  0  0  0
   20.3660    3.7080   36.6230 C   0  0  0  0  0  0  0  0  0  0  0  0
   20.2850    4.9930   35.8430 C   0  0  1  0  0  0  0  0  0  0  0  0
   21.1030    6.0080   36.3990 O   0  0  0  0  0  0  0  0  0  0  0  0
   22.3220    5.6880   36.8930 C   0  0  0  0  0  0  0  0  0  0  0  0
   22.5420    4.4200   37.4410 C   0  0  0  0  0  0  0  0  0  0  0  0
   23.8080    4.1300   37.9560 C   0  0  0  0  0  0  0  0  0  0  0  0
   24.8050    5.1020   37.9290 C   0  0  0  0  0  0  0  0  0  0  0  0
   24.5750    6.3430   37.3860 C   0  0  0  0  0  0  0  0  0  0  0  0
   23.3240    6.6350   36.8850 C   0  0  0  0  0  0  0  0  0  0  0  0
   26.0370    4.8470   38.4280 O   0  0  0  0  0  0  0  0  0  0  0  0
   20.6770    4.8740   34.3920 C   0  0  0  0  0  0  0  0  0  0  0  0
   20.0460    5.7080   33.4790 C   0  0  0  0  0  0  0  0  0  0  0  0
   20.3990    5.6560   32.1440 C   0  0  0  0  0  0  0  0  0  0  0  0
   21.3790    4.7820   31.7130 C   0  0  0  0  0  0  0  0  0  0  0  0
   21.9980    3.9570   32.6330 C   0  0  0  0  0  0  0  0  0  0  0  0
   21.6560    3.9920   33.9740 C   0  0  0  0  0  0  0  0  0  0  0  0
   21.9090    4.7140   29.6910 I   0  0  0  0  0  0  0  0  0  0  0  0
   19.1540    2.9170   36.3830 C   0  0  2  0  0  0  0  0  0  0  0  0
   19.1170    2.0510   35.2850 C   0  0  0  0  0  0  0  0  0  0  0  0
   17.9810    1.3310   34.9870 C   0  0  0  0  0  0  0  0  0  0  0  0
   16.8480    1.5010   35.7550 C   0  0  0  0  0  0  0  0  0  0  0  0
   16.8630    2.3850   36.8300 C   0  0  0  0  0  0  0  0  0  0  0  0
   18.0080    3.1070   37.1470 C   0  0  0  0  0  0  0  0  0  0  0  0
   15.7420    2.5370   37.5850 O   0  0  0  0  0  0  0  0  0  0  0  0
  2  1  1  6
  3  2  1  0
  4  3  1  0
  5  4  1  0
  6  5  1  0
  7  2  1  0
  7  6  1  0
  8  7  1  0
  9  8  1  0
 10  9  1  0
 11 10  1  0
 11  6  1  0
 12  9  1  0
  4 13  1  6
 14 13  1  0
 15 14  1  0
 16 15  1  0
 17 16  1  0
 18 13  1  0
 18 17  1  0
 19 16  1  0
 20  3  1  6
 21 20  1  0
 22 21  1  0
 23 22  1  0
 24 23  1  0
 25 24  1  0
 25 20  1  0
 26 24  1  0
M  END
$$$$
5KCT
     RDKit          3D

 79 79  0  0  0  0  0  0  0  0999 V2000
   -7.1510  -40.7050  -34.3460 N   0  0  0  0  0  0  0  0  0  0  0  0
   -7.2850  -39.2540  -34.2930 C   0  0  2  0  0  0  0  0  0  0  0  0
   -6.2960  -38.5640  -35.2260 C   0  0  0  0  0  0  0  0  0  0  0  0
   -5.1400  -38.9660  -35.3240 O   0  0  0  0  0  0  0  0  0  0  0  0
   -7.0940  -38.7580  -32.8600 C   0  0  0  0  0  0  0  0  0  0  0  0
   -8.2850  -39.0580  -31.9620 C   0  0  0  0  0  0  0  0  0  0  0  0
   -7.8740  -39.2400  -30.5110 C   0  0  0  0  0  0  0  0  0  0  0  0
   -7.4600  -37.9310  -29.8800 C   0  0  0  0  0  0  0  0  0  0  0  0
   -7.5160  -37.9920  -28.3890 N   0  0  0  0  0  0  0  0  0  0  0  0
   -6.7620  -37.5250  -35.9100 N   0  0  0  0  0  0  0  0  0  0  0  0
   -5.9260  -36.7910  -36.8560 C   0  0  2  0  0  0  0  0  0  0  0  0
   -4.7530  -36.1070  -36.1550 C   0  0  0  0  0  0  0  0  0  0  0  0
   -3.6270  -36.1580  -36.6350 O   0  0  0  0  0  0  0  0  0  0  0  0
   -6.7460  -35.7400  -37.6200 C   0  0  2  0  0  0  0  0  0  0  0  0
   -8.0640  -36.3490  -38.1040 C   0  0  0  0  0  0  0  0  0  0  0  0
   -5.9430  -35.1890  -38.7890 C   0  0  0  0  0  0  0  0  0  0  0  0
   -9.0750  -35.3230  -38.5800 C   0  0  0  0  0  0  0  0  0  0  0  0
   -5.0260  -35.4720  -35.0190 N   0  0  0  0  0  0  0  0  0  0  0  0
   -3.9810  -34.8480  -34.2150 C   0  0  2  0  0  0  0  0  0  0  0  0
   -2.8690  -35.8430  -33.9150 C   0  0  0  0  0  0  0  0  0  0  0  0
   -1.6840  -35.5390  -34.0650 O   0  0  0  0  0  0  0  0  0  0  0  0
   -4.5650  -34.3010  -32.9130 C   0  0  0  0  0  0  0  0  0  0  0  0
   -3.5780  -33.7280  -31.9010 C   0  0  0  0  0  0  0  0  0  0  0  0
   -2.7220  -32.6480  -32.5390 C   0  0  0  0  0  0  0  0  0  0  0  0
   -4.3320  -33.1810  -30.7000 C   0  0  0  0  0  0  0  0  0  0  0  0
   -3.2790  -37.0370  -33.4980 N   0  0  0  0  0  0  0  0  0  0  0  0
   -2.3820  -38.1560  -33.2530 C   0  0  2  0  0  0  0  0  0  0  0  0
   -1.4360  -38.3670  -34.4320 C   0  0  0  0  0  0  0  0  0  0  0  0
   -0.2210  -38.4500  -34.2670 O   0  0  0  0  0  0  0  0  0  0  0  0
   -3.2080  -39.4190  -32.9960 C   0  0  0  0  0  0  0  0  0  0  0  0
   -2.4520  -40.5280  -32.3400 C   0  0  0  0  0  0  0  0  0  0  0  0
   -2.1250  -40.5150  -31.0020 N   0  0  0  0  0  0  0  0  0  0  0  0
   -1.9790  -41.6970  -32.8330 C   0  0  0  0  0  0  0  0  0  0  0  0
   -1.4810  -41.6280  -30.6980 C   0  0  0  0  0  0  0  0  0  0  0  0
   -1.3730  -42.3590  -31.7930 N   0  0  0  0  0  0  0  0  0  0  0  0
   -2.0080  -38.4160  -35.6280 N   0  0  0  0  0  0  0  0  0  0  0  0
   -1.2400  -38.7220  -36.8280 C   0  0  2  0  0  0  0  0  0  0  0  0
   -0.3000  -37.5960  -37.2540 C   0  0  0  0  0  0  0  0  0  0  0  0
    0.8660  -37.8460  -37.5670 O   0  0  0  0  0  0  0  0  0  0  0  0
   -2.1800  -39.0550  -37.9850 C   0  0  0  0  0  0  0  0  0  0  0  0
   -1.4460  -39.4990  -39.2400 C   0  0  0  0  0  0  0  0  0  0  0  0
   -2.4050  -39.8010  -40.3760 C   0  0  0  0  0  0  0  0  0  0  0  0
   -2.6170  -38.6270  -41.2130 N   0  0  0  0  0  0  0  0  0  0  0  0
   -3.7530  -37.9450  -41.2670 C   0  0  0  0  0  0  0  0  0  0  0  0
   -4.7970  -38.3320  -40.5480 N   0  0  0  0  0  0  0  0  0  0  0  0
   -3.8500  -36.8900  -42.0590 N   0  0  0  0  0  0  0  0  0  0  0  0
   -0.8160  -36.3660  -37.2840 N   0  0  0  0  0  0  0  0  0  0  0  0
   -0.0380  -35.2070  -37.7270 C   0  0  2  0  0  0  0  0  0  0  0  0
    1.1740  -34.9880  -36.8330 C   0  0  0  0  0  0  0  0  0  0  0  0
    2.1890  -34.4410  -37.2560 O   0  0  0  0  0  0  0  0  0  0  0  0
   -0.9070  -33.9470  -37.7480 C   0  0  0  0  0  0  0  0  0  0  0  0
   -2.0460  -33.9080  -38.7690 C   0  0  0  0  0  0  0  0  0  0  0  0
   -2.8730  -32.6450  -38.6190 C   0  0  0  0  0  0  0  0  0  0  0  0
   -1.4920  -34.0110  -40.1760 C   0  0  0  0  0  0  0  0  0  0  0  0
    1.0550  -35.4150  -35.5870 N   0  0  0  0  0  0  0  0  0  0  0  0
    2.1570  -35.3370  -34.6450 C   0  0  2  0  0  0  0  0  0  0  0  0
    3.2900  -36.2980  -35.0240 C   0  0  0  0  0  0  0  0  0  0  0  0
    4.4620  -36.0190  -34.7630 O   0  0  0  0  0  0  0  0  0  0  0  0
    1.6560  -35.6230  -33.2340 C   0  0  0  0  0  0  0  0  0  0  0  0
    0.9720  -34.4380  -32.5450 C   0  0  0  0  0  0  0  0  0  0  0  0
    0.1510  -34.8690  -31.3240 C   0  0  0  0  0  0  0  0  0  0  0  0
    2.0110  -33.4410  -32.1310 C   0  0  0  0  0  0  0  0  0  0  0  0
    2.9380  -37.4170  -35.6550 N   0  0  0  0  0  0  0  0  0  0  0  0
    3.9420  -38.4240  -36.0230 C   0  0  2  0  0  0  0  0  0  0  0  0
    4.7190  -38.0800  -37.2860 C   0  0  0  0  0  0  0  0  0  0  0  0
    5.8290  -38.5710  -37.4880 O   0  0  0  0  0  0  0  0  0  0  0  0
    3.2810  -39.8010  -36.1630 C   0  0  0  0  0  0  0  0  0  0  0  0
    3.0490  -40.4790  -34.8300 C   0  0  0  0  0  0  0  0  0  0  0  0
    2.4470  -41.8930  -34.9580 C   0  0  0  0  0  0  0  0  0  0  0  0
    1.7190  -42.1990  -35.9020 O   0  0  0  0  0  0  0  0  0  0  0  0
    2.7750  -42.7580  -34.0080 N   0  0  0  0  0  0  0  0  0  0  0  0
    4.1560  -37.2170  -38.1250 N   0  0  0  0  0  0  0  0  0  0  0  0
    4.8490  -36.7900  -39.3520 C   0  0  2  0  0  0  0  0  0  0  0  0
    6.0560  -35.9260  -39.1220 C   0  0  0  0  0  0  0  0  0  0  0  0
    7.1520  -36.3020  -39.5360 O   0  0  0  0  0  0  0  0  0  0  0  0
    3.8800  -36.0780  -40.2690 C   0  0  0  0  0  0  0  0  0  0  0  0
    2.9780  -37.0490  -40.9910 C   0  0  0  0  0  0  0  0  0  0  0  0
    3.2970  -38.2520  -41.0160 O   0  0  0  0  0  0  0  0  0  0  0  0
    1.9470  -36.6140  -41.5580 O   0  0  0  0  0  0  0  0  0  0  0  0
  2  1  1  1
  3  2  1  0
  4  3  2  0
  5  2  1  0
  6  5  1  0
  7  6  1  0
  8  7  1  0
  9  8  1  0
 10  3  1  0
 11 10  1  1
 12 11  1  0
 13 12  2  0
 14 11  1  0
 15 14  1  0
 14 16  1  6
 17 15  1  0
 18 12  1  0
 19 18  1  0
 20 19  1  0
 21 20  2  0
 19 22  1  1
 23 22  1  0
 24 23  1  0
 25 23  1  0
 26 20  1  0
 27 26  1  0
 28 27  1  0
 29 28  2  0
 27 30  1  6
 31 30  1  0
 32 31  1  0
 33 31  2  0
 34 32  2  0
 35 33  1  0
 35 34  1  0
 36 28  1  0
 37 36  1  0
 38 37  1  0
 39 38  2  0
 37 40  1  6
 41 40  1  0
 42 41  1  0
 43 42  1  0
 44 43  1  0
 45 44  1  0
 46 44  2  0
 47 38  1  0
 48 47  1  0
 49 48  1  0
 50 49  2  0
 48 51  1  1
 52 51  1  0
 53 52  1  0
 54 52  1  0
 55 49  1  0
 56 55  1  0
 57 56  1  0
 58 57  2  0
 56 59  1  1
 60 59  1  0
 61 60  1  0
 62 60  1  0
 63 57  1  0
 64 63  1  0
 65 64  1  0
 66 65  2  0
 64 67  1  6
 68 67  1  0
 69 68  1  0
 70 69  2  0
 71 69  1  0
 72 65  1  0
 73 72  1  0
 74 73  1  0
 75 74  2  0
 73 76  1  6
 77 76  1  0
 78 77  2  0
 79 77  1  0
M  END
$$$$
8BZW
     RDKit          3D

 78 79  0  0  0  0  0  0  0  0999 V2000
    9.7880    7.4800   17.6060 N   0  0  0  0  0  0  0  0  0  0  0  0
   10.1350    7.7230   16.2180 C   0  0  0  0  0  0  0  0  0  0  0  0
   11.4180    8.5160   16.0460 C   0  0  0  0  0  0  0  0  0  0  0  0
   11.7710    9.3420   16.8880 O   0  0  0  0  0  0  0  0  0  0  0  0
   10.2440    6.8720   15.7650 H   0  0  0  0  0  0  0  0  0  0  0  0
    9.4170    8.2160   15.7930 H   0  0  0  0  0  0  0  0  0  0  0  0
   12.1070    8.2560   14.9390 N   0  0  0  0  0  0  0  0  0  0  0  0
   13.3530    8.9340   14.5970 C   0  0  2  0  0  0  0  0  0  0  0  0
   13.0110   10.1980   13.8150 C   0  0  0  0  0  0  0  0  0  0  0  0
   12.3110   10.1050   12.7970 O   0  0  0  0  0  0  0  0  0  0  0  0
   14.2080    8.0020   13.7390 C   0  0  0  0  0  0  0  0  0  0  0  0
   14.6780    6.7490   14.4630 C   0  0  0  0  0  0  0  0  0  0  0  0
   13.7990    5.9480   15.1770 C   0  0  0  0  0  0  0  0  0  0  0  0
   15.9990    6.3700   14.4110 C   0  0  0  0  0  0  0  0  0  0  0  0
   14.2490    4.8100   15.8410 C   0  0  0  0  0  0  0  0  0  0  0  0
   16.4550    5.2290   15.0730 C   0  0  0  0  0  0  0  0  0  0  0  0
   15.5820    4.4560   15.7830 C   0  0  0  0  0  0  0  0  0  0  0  0
   11.8670    7.6750   14.3520 H   0  0  0  0  0  0  0  0  0  0  0  0
   13.8540    9.1830   15.3900 H   0  0  0  0  0  0  0  0  0  0  0  0
   13.6870    7.7200   12.9710 H   0  0  0  0  0  0  0  0  0  0  0  0
   14.9970    8.4850   13.4450 H   0  0  0  0  0  0  0  0  0  0  0  0
   12.8980    6.1750   15.2140 H   0  0  0  0  0  0  0  0  0  0  0  0
   16.6010    6.8860   13.9240 H   0  0  0  0  0  0  0  0  0  0  0  0
   13.6510    4.2870   16.3240 H   0  0  0  0  0  0  0  0  0  0  0  0
   17.3540    4.9950   15.0300 H   0  0  0  0  0  0  0  0  0  0  0  0
   15.8830    3.6960   16.2260 H   0  0  0  0  0  0  0  0  0  0  0  0
   13.4500   11.3820   14.2410 N   0  0  0  0  0  0  0  0  0  0  0  0
   12.8930   12.6140   13.6710 C   0  0  2  0  0  0  0  0  0  0  0  0
   13.5000   12.9720   12.3220 C   0  0  0  0  0  0  0  0  0  0  0  0
   14.5810   12.5230   11.9430 O   0  0  0  0  0  0  0  0  0  0  0  0
   13.2380   13.6650   14.7290 C   0  0  0  0  0  0  0  0  0  0  0  0
   14.5630   13.1950   15.2770 C   0  0  0  0  0  0  0  0  0  0  0  0
   14.4780   11.6690   15.2650 C   0  0  0  0  0  0  0  0  0  0  0  0
   11.9310   12.5390   13.5700 H   0  0  0  0  0  0  0  0  0  0  0  0
   13.3170   14.5410   14.3190 H   0  0  0  0  0  0  0  0  0  0  0  0
   12.5580   13.6820   15.4200 H   0  0  0  0  0  0  0  0  0  0  0  0
   15.2840   13.5070   14.7080 H   0  0  0  0  0  0  0  0  0  0  0  0
   14.6840   13.5290   16.1790 H   0  0  0  0  0  0  0  0  0  0  0  0
   15.3310   11.2790   15.0150 H   0  0  0  0  0  0  0  0  0  0  0  0
   14.2030   11.3330   16.1330 H   0  0  0  0  0  0  0  0  0  0  0  0
   12.7720   13.8150   11.5900 N   0  0  0  0  0  0  0  0  0  0  0  0
   13.1820   14.2070   10.2530 C   0  0  2  0  0  0  0  0  0  0  0  0
   14.3180   15.2270   10.2610 C   0  0  0  0  0  0  0  0  0  0  0  0
   14.2710   16.2020   11.0150 O   0  0  0  0  0  0  0  0  0  0  0  0
   11.9900   14.7800    9.4840 C   0  0  0  0  0  0  0  0  0  0  0  0
   12.0350   14.1730   11.8510 H   0  0  0  0  0  0  0  0  0  0  0  0
   13.5080   13.4120    9.8020 H   0  0  0  0  0  0  0  0  0  0  0  0
   12.2810   15.0360    8.5950 H   0  0  0  0  0  0  0  0  0  0  0  0
   11.2980   14.1030    9.4240 H   0  0  0  0  0  0  0  0  0  0  0  0
   11.6520   15.5560    9.9580 H   0  0  0  0  0  0  0  0  0  0  0  0
   15.3170   14.9930    9.4190 N   0  0  0  0  0  0  0  0  0  0  0  0
   16.3830   15.9580    9.1370 C   0  0  1  0  0  0  0  0  0  0  0  0
   17.6760   15.6120    9.8930 C   0  0  1  0  0  0  0  0  0  0  0  0
   17.4890   15.7580   11.4050 C   0  0  0  0  0  0  0  0  0  0  0  0
   17.9630   14.2470    9.5430 O   0  0  0  0  0  0  0  0  0  0  0  0
   19.3890   13.5940    9.9580 P   0  0  0  0  0  0  0  0  0  0  0  0
   19.4690   12.3050    9.0460 O   0  0  0  0  0  0  0  0  0  0  0  0
   19.4130   13.2550   11.4040 O   0  0  0  0  0  0  0  0  0  0  0  0
   20.5060   14.6350    9.6360 O   0  0  0  0  0  0  0  0  0  0  0  0
   16.6240   15.9580    7.6330 C   0  0  0  0  0  0  0  0  0  0  0  0
   16.2640   14.9820    6.9470 O   0  0  0  0  0  0  0  0  0  0  0  0
   17.2070   17.0260    7.1150 N   0  0  0  0  0  0  0  0  0  0  0  0
   17.5130   17.1030    5.7010 C   0  0  2  0  0  0  0  0  0  0  0  0
   18.9540   17.4900    5.4370 C   0  0  0  0  0  0  0  0  0  0  0  0
   19.7240   17.8920    6.3140 O   0  0  0  0  0  0  0  0  0  0  0  0
   16.6050   18.1090    4.9540 C   0  0  0  0  0  0  0  0  0  0  0  0
   15.1680   17.7080    5.0410 C   0  0  0  0  0  0  0  0  0  0  0  0
   16.8060   19.5320    5.4830 C   0  0  0  0  0  0  0  0  0  0  0  0
   19.3710   17.4410    4.2690 O   0  0  0  0  0  0  0  0  0  0  0  0
   17.4350   17.7230    7.5650 H   0  0  0  0  0  0  0  0  0  0  0  0
   17.3600   16.2080    5.3590 H   0  0  0  0  0  0  0  0  0  0  0  0
   16.8580   18.1030    4.0180 H   0  0  0  0  0  0  0  0  0  0  0  0
   14.6310   18.3460    4.5450 H   0  0  0  0  0  0  0  0  0  0  0  0
   15.0640   16.8220    4.6610 H   0  0  0  0  0  0  0  0  0  0  0  0
   14.8970   17.7020    5.9730 H   0  0  0  0  0  0  0  0  0  0  0  0
   16.1160   20.1060    5.1160 H   0  0  0  0  0  0  0  0  0  0  0  0
   16.7470   19.5200    6.4510 H   0  0  0  0  0  0  0  0  0  0  0  0
   17.6810   19.8500    5.2090 H   0  0  0  0  0  0  0  0  0  0  0  0
  2  1  1  0
  3  2  1  0
  4  3  2  0
  5  2  1  0
  6  2  1  0
  7  3  1  0
  8  7  1  0
  9  8  1  0
 10  9  2  0
 11  8  1  0
 12 11  1  0
 13 12  2  0
 14 12  1  0
 15 13  1  0
 16 14  2  0
 17 15  2  0
 17 16  1  0
 18  7  1  0
  8 19  1  1
 20 11  1  0
 21 11  1  0
 22 13  1  0
 23 14  1  0
 24 15  1  0
 25 16  1  0
 26 17  1  0
 27  9  1  0
 28 27  1  0
 29 28  1  0
 30 29  2  0
 31 28  1  0
 32 31  1  0
 33 32  1  0
 33 27  1  0
 28 34  1  6
 35 31  1  0
 36 31  1  0
 37 32  1  0
 38 32  1  0
 39 33  1  0
 40 33  1  0
 41 29  1  0
 42 41  1  0
 43 42  1  0
 44 43  2  0
 45 42  1  0
 46 41  1  0
 42 47  1  6
 48 45  1  0
 49 45  1  0
 50 45  1  0
 51 43  1  0
 52 51  1  6
 53 52  1  0
 53 54  1  1
 55 53  1  0
 56 55  1  0
 57 56  1  0
 58 56  1  0
 59 56  1  0
 60 52  1  0
 61 60  1  0
 62 60  1  0
 63 62  1  0
 64 63  1  0
 65 64  2  0
 66 63  1  0
 67 66  1  0
 68 66  1  0
 69 64  1  0
 70 62  1  0
 63 71  1  6
 72 66  1  0
 73 67  1  0
 74 67  1  0
 75 67  1  0
 76 68  1  0
 77 68  1  0
 78 68  1  0
M  END
$$$$
5U2D
     RDKit          3D

 31 35  0  0  0  0  0  0  0  0999 V2000
   -8.4220   22.5240    5.4440 C   0  0  0  0  0  0  0  0  0  0  0  0
   -9.7420   22.4310    5.8480 C   0  0  0  0  0  0  0  0  0  0  0  0
  -10.0540   21.8580    7.0740 C   0  0  0  0  0  0  0  0  0  0  0  0
  -11.3550   21.7830    7.4530 O   0  0  0  0  0  0  0  0  0  0  0  0
   -9.0420   21.3540    7.8800 C   0  0  0  0  0  0  0  0  0  0  0  0
   -7.7220   21.4480    7.4700 C   0  0  0  0  0  0  0  0  0  0  0  0
   -7.3910   22.0360    6.2480 C   0  0  0  0  0  0  0  0  0  0  0  0
   -5.9790   22.1300    5.8090 C   0  0  0  0  0  0  0  0  0  0  0  0
   -4.8970   21.3440    6.0130 C   0  0  1  0  0  0  0  0  0  0  0  0
   -4.7010   19.9940    6.5970 C   0  0  1  0  0  0  0  0  0  0  0  0
   -5.5710   18.9550    6.2750 C   0  0  0  0  0  0  0  0  0  0  0  0
   -5.3030   17.6560    6.6740 C   0  0  0  0  0  0  0  0  0  0  0  0
   -4.1620   17.3810    7.4160 C   0  0  1  0  0  0  0  0  0  0  0  0
   -3.8530   16.0900    7.7120 O   0  0  0  0  0  0  0  0  0  0  0  0
   -3.3130   18.4140    7.7880 C   0  0  0  0  0  0  0  0  0  0  0  0
   -3.5790   19.7100    7.3740 C   0  0  0  0  0  0  0  0  0  0  0  0
   -3.7710   22.0560    5.3060 C   0  0  2  0  0  0  0  0  0  0  0  0
   -4.1300   23.4400    5.4110 O   0  0  0  0  0  0  0  0  0  0  0  0
   -5.4790   23.2730    4.9450 C   0  0  1  0  0  0  0  0  0  0  0  0
   -5.3350   22.6520    3.5360 C   0  0  0  0  0  0  0  0  0  0  0  0
   -4.1170   21.7560    3.8280 C   0  0  1  0  0  0  0  0  0  0  0  0
   -2.8050   22.0750    2.7630 S   0  0  1  0  0  0  0  0  0  0  0  0
   -3.2000   21.5800    1.4890 O   0  0  0  0  0  0  0  0  0  0  0  0
   -2.3430   23.4230    2.9240 O   0  0  0  0  0  0  0  0  0  0  0  0
   -1.7120   21.0460    3.3190 O   0  0  0  0  0  0  0  0  0  0  0  0
   -0.3320   21.3790    3.3700 C   0  0  2  0  0  0  0  0  0  0  0  0
    0.2690   22.0400    2.3020 C   0  0  0  0  0  0  0  0  0  0  0  0
    1.6330   22.2860    2.3440 C   0  0  0  0  0  0  0  0  0  0  0  0
    2.3890   21.8760    3.4330 C   0  0  0  0  0  0  0  0  0  0  0  0
    1.7810   21.2260    4.4880 C   0  0  0  0  0  0  0  0  0  0  0  0
    0.4160   20.9790    4.4690 C   0  0  0  0  0  0  0  0  0  0  0  0
  2  1  1  0
  3  2  1  0
  4  3  1  0
  5  3  1  0
  6  5  1  0
  7  6  1  0
  7  1  1  0
  8  7  1  0
  9  8  1  6
 10  9  1  0
 10 11  1  6
 12 11  1  0
 13 12  1  0
 13 14  1  6
 15 13  1  0
 16 15  1  0
 16 10  1  0
 17  9  1  0
 17 18  1  6
 19  8  1  0
 19 18  1  0
 19 20  1  6
 21 20  1  6
 21 17  1  0
 22 21  1  0
 22 23  1  6
 24 22  1  0
 25 22  1  0
 26 25  1  6
 27 26  1  0
 28 27  1  0
 29 28  1  0
 30 29  1  0
 31 30  1  0
 31 26  1  0
M  END
$$$$
2B1Z
     RDKit          3D

 32 31  0  0  0  0  0  0  0  0999 V2000
    4.5880   21.8170    3.0790 N   0  0  0  0  0  0  0  0  0  0  0  0
    4.5810   20.5630    3.8230 C   0  0  2  0  0  0  0  0  0  0  0  0
    5.9760   19.9390    3.8850 C   0  0  0  0  0  0  0  0  0  0  0  0
    6.1440   18.7470    3.6250 O   0  0  0  0  0  0  0  0  0  0  0  0
    3.5820   19.5720    3.2090 C   0  0  0  0  0  0  0  0  0  0  0  0
    2.1280   19.7770    3.6340 C   0  0  0  0  0  0  0  0  0  0  0  0
    1.5270   21.0440    3.0310 C   0  0  0  0  0  0  0  0  0  0  0  0
    0.0450   21.1780    3.3660 C   0  0  0  0  0  0  0  0  0  0  0  0
   -0.2040   21.2630    4.8330 N   0  0  0  0  0  0  0  0  0  0  0  0
    6.9710   20.7540    4.2270 N   0  0  0  0  0  0  0  0  0  0  0  0
    8.3430   20.2760    4.3840 C   0  0  2  0  0  0  0  0  0  0  0  0
    8.5410   19.6520    5.7610 C   0  0  0  0  0  0  0  0  0  0  0  0
    7.9600   20.1090    6.7460 O   0  0  0  0  0  0  0  0  0  0  0  0
    9.3380   21.4240    4.1990 C   0  0  0  0  0  0  0  0  0  0  0  0
    9.0880   22.1380    3.0030 O   0  0  0  0  0  0  0  0  0  0  0  0
    9.3620   18.6070    5.8240 N   0  0  0  0  0  0  0  0  0  0  0  0
    9.7060   17.9760    7.0940 C   0  0  2  0  0  0  0  0  0  0  0  0
   10.4860   18.9590    7.9690 C   0  0  0  0  0  0  0  0  0  0  0  0
   11.4180   19.6160    7.4980 O   0  0  0  0  0  0  0  0  0  0  0  0
   10.5300   16.7080    6.8530 C   0  0  0  0  0  0  0  0  0  0  0  0
   10.9910   15.9140    8.0780 C   0  0  0  0  0  0  0  0  0  0  0  0
    9.7990   15.4580    8.9040 C   0  0  0  0  0  0  0  0  0  0  0  0
   11.8370   14.7230    7.6590 C   0  0  0  0  0  0  0  0  0  0  0  0
   10.0900   19.0720    9.2350 N   0  0  0  0  0  0  0  0  0  0  0  0
   10.8170   19.9100   10.1850 C   0  0  2  0  0  0  0  0  0  0  0  0
   12.0510   19.1810   10.7060 C   0  0  0  0  0  0  0  0  0  0  0  0
   12.0050   17.9750   10.9670 O   0  0  0  0  0  0  0  0  0  0  0  0
    9.9220   20.3280   11.3570 C   0  0  0  0  0  0  0  0  0  0  0  0
    9.0330   21.5300   11.0750 C   0  0  0  0  0  0  0  0  0  0  0  0
    7.5800   21.1520   10.8770 C   0  0  0  0  0  0  0  0  0  0  0  0
    6.8690   21.8750   10.1460 O   0  0  0  0  0  0  0  0  0  0  0  0
    7.1470   20.1370   11.4590 O   0  0  0  0  0  0  0  0  0  0  0  0
  2  1  1  6
  3  2  1  0
  4  3  2  0
  5  2  1  0
  6  5  1  0
  7  6  1  0
  8  7  1  0
  9  8  1  0
 10  3  1  0
 11 10  1  0
 12 11  1  0
 13 12  2  0
 11 14  1  1
 15 14  1  0
 16 12  1  0
 17 16  1  0
 18 17  1  0
 19 18  2  0
 17 20  1  6
 21 20  1  0
 22 21  1  0
 23 21  1  0
 24 18  1  0
 25 24  1  0
 26 25  1  0
 27 26  2  0
 25 28  1  1
 29 28  1  0
 30 29  1  0
 31 30  2  0
 32 30  1  0
M  END
$$$$
8BZA
     RDKit          3D

 71 72  0  0  0  0  0  0  0  0999 V2000
   12.7440    7.8670   14.5680 N   0  0  0  0  0  0  0  0  0  0  0  0
   13.5970    9.0530   14.5930 C   0  0  2  0  0  0  0  0  0  0  0  0
   12.8760   10.2650   14.0040 C   0  0  0  0  0  0  0  0  0  0  0  0
   11.9900   10.1230   13.1580 O   0  0  0  0  0  0  0  0  0  0  0  0
   14.9230    8.7890   13.8480 C   0  0  0  0  0  0  0  0  0  0  0  0
   14.7600    8.1310   12.5020 C   0  0  0  0  0  0  0  0  0  0  0  0
   14.6020    8.8910   11.3500 C   0  0  0  0  0  0  0  0  0  0  0  0
   14.7760    6.7460   12.3850 C   0  0  0  0  0  0  0  0  0  0  0  0
   14.4530    8.2810   10.1080 C   0  0  0  0  0  0  0  0  0  0  0  0
   14.6210    6.1330   11.1510 C   0  0  0  0  0  0  0  0  0  0  0  0
   14.4670    6.9020   10.0090 C   0  0  0  0  0  0  0  0  0  0  0  0
   13.8180    9.2640   15.5130 H   0  0  0  0  0  0  0  0  0  0  0  0
   15.3730    9.6370   13.7080 H   0  0  0  0  0  0  0  0  0  0  0  0
   15.4740    8.2070   14.3940 H   0  0  0  0  0  0  0  0  0  0  0  0
   14.5970    9.8190   11.4090 H   0  0  0  0  0  0  0  0  0  0  0  0
   14.8930    6.2240   13.1450 H   0  0  0  0  0  0  0  0  0  0  0  0
   14.3440    8.8010    9.3450 H   0  0  0  0  0  0  0  0  0  0  0  0
   14.6210    5.2050   11.0900 H   0  0  0  0  0  0  0  0  0  0  0  0
   14.3730    6.4930    9.1790 H   0  0  0  0  0  0  0  0  0  0  0  0
   13.2530   11.4590   14.4480 N   0  0  0  0  0  0  0  0  0  0  0  0
   12.6810   12.6740   13.8640 C   0  0  2  0  0  0  0  0  0  0  0  0
   13.2920   12.9860   12.5050 C   0  0  0  0  0  0  0  0  0  0  0  0
   14.3540   12.4860   12.1250 O   0  0  0  0  0  0  0  0  0  0  0  0
   13.0330   13.7390   14.9030 C   0  0  0  0  0  0  0  0  0  0  0  0
   14.3880   13.3040   15.4000 C   0  0  0  0  0  0  0  0  0  0  0  0
   14.2590   11.7760   15.4860 C   0  0  0  0  0  0  0  0  0  0  0  0
   11.7170   12.6130   13.7720 H   0  0  0  0  0  0  0  0  0  0  0  0
   13.0730   14.6140   14.4880 H   0  0  0  0  0  0  0  0  0  0  0  0
   12.3780   13.7400   15.6190 H   0  0  0  0  0  0  0  0  0  0  0  0
   15.0780   13.5650   14.7700 H   0  0  0  0  0  0  0  0  0  0  0  0
   14.5690   13.6930   16.2700 H   0  0  0  0  0  0  0  0  0  0  0  0
   15.1060   11.3460   15.2880 H   0  0  0  0  0  0  0  0  0  0  0  0
   13.9470   11.5050   16.3630 H   0  0  0  0  0  0  0  0  0  0  0  0
   12.5800   13.8230   11.7550 N   0  0  0  0  0  0  0  0  0  0  0  0
   12.9760   14.1840   10.4190 C   0  0  2  0  0  0  0  0  0  0  0  0
   14.1060   15.2090   10.3950 C   0  0  0  0  0  0  0  0  0  0  0  0
   14.0610   16.1900   11.1210 O   0  0  0  0  0  0  0  0  0  0  0  0
   11.7740   14.7520    9.6660 C   0  0  0  0  0  0  0  0  0  0  0  0
   11.8500   14.1980   12.0120 H   0  0  0  0  0  0  0  0  0  0  0  0
   13.3000   13.3830    9.9800 H   0  0  0  0  0  0  0  0  0  0  0  0
   12.0500   14.9930    8.7680 H   0  0  0  0  0  0  0  0  0  0  0  0
   11.0780   14.0780    9.6290 H   0  0  0  0  0  0  0  0  0  0  0  0
   11.4500   15.5370   10.1350 H   0  0  0  0  0  0  0  0  0  0  0  0
   15.0900   14.9780    9.5270 N   0  0  0  0  0  0  0  0  0  0  0  0
   16.1510   15.9390    9.2150 C   0  0  1  0  0  0  0  0  0  0  0  0
   17.4790   15.6120    9.9600 C   0  0  1  0  0  0  0  0  0  0  0  0
   17.3200   15.7970   11.4710 C   0  0  0  0  0  0  0  0  0  0  0  0
   17.7530   14.2300    9.6420 O   0  0  0  0  0  0  0  0  0  0  0  0
   19.2030   13.6150    9.9910 P   0  0  0  0  0  0  0  0  0  0  0  0
   19.2890   12.3570    9.0400 O   0  0  0  0  0  0  0  0  0  0  0  0
   19.2370   13.2390   11.4240 O   0  0  0  0  0  0  0  0  0  0  0  0
   20.3200   14.6540    9.6530 O   0  0  0  0  0  0  0  0  0  0  0  0
   16.3730   15.9120    7.7160 C   0  0  0  0  0  0  0  0  0  0  0  0
   15.9990   14.9320    7.0540 O   0  0  0  0  0  0  0  0  0  0  0  0
   16.9550   16.9650    7.1730 N   0  0  0  0  0  0  0  0  0  0  0  0
   17.2260   17.0300    5.7420 C   0  0  2  0  0  0  0  0  0  0  0  0
   18.6720   17.3360    5.4370 C   0  0  0  0  0  0  0  0  0  0  0  0
   19.4520   17.7730    6.2900 O   0  0  0  0  0  0  0  0  0  0  0  0
   16.3180   18.0500    5.0250 C   0  0  0  0  0  0  0  0  0  0  0  0
   14.8920   17.6670    5.1940 C   0  0  0  0  0  0  0  0  0  0  0  0
   16.5980   19.4540    5.5530 C   0  0  0  0  0  0  0  0  0  0  0  0
   19.0910   17.1460    4.2780 O   0  0  0  0  0  0  0  0  0  0  0  0
   17.2060   17.6610    7.6110 H   0  0  0  0  0  0  0  0  0  0  0  0
   17.0330   16.1450    5.3950 H   0  0  0  0  0  0  0  0  0  0  0  0
   16.5070   18.0540    4.0740 H   0  0  0  0  0  0  0  0  0  0  0  0
   14.3380   18.2880    4.6950 H   0  0  0  0  0  0  0  0  0  0  0  0
   14.7650   16.7660    4.8570 H   0  0  0  0  0  0  0  0  0  0  0  0
   14.6650   17.7040    6.1360 H   0  0  0  0  0  0  0  0  0  0  0  0
   15.9220   20.0600    5.2120 H   0  0  0  0  0  0  0  0  0  0  0  0
   16.5700   19.4390    6.5230 H   0  0  0  0  0  0  0  0  0  0  0  0
   17.4770   19.7350    5.2530 H   0  0  0  0  0  0  0  0  0  0  0  0
  2  1  1  0
  3  2  1  0
  4  3  2  0
  5  2  1  0
  6  5  1  0
  7  6  2  0
  8  6  1  0
  9  7  1  0
 10  8  2  0
 11  9  2  0
 11 10  1  0
  2 12  1  1
 13  5  1  0
 14  5  1  0
 15  7  1  0
 16  8  1  0
 17  9  1  0
 18 10  1  0
 19 11  1  0
 20  3  1  0
 21 20  1  0
 22 21  1  0
 23 22  2  0
 24 21  1  0
 25 24  1  0
 26 25  1  0
 26 20  1  0
 21 27  1  6
 28 24  1  0
 29 24  1  0
 30 25  1  0
 31 25  1  0
 32 26  1  0
 33 26  1  0
 34 22  1  0
 35 34  1  0
 36 35  1  0
 37 36  2  0
 38 35  1  0
 39 34  1  0
 35 40  1  6
 41 38  1  0
 42 38  1  0
 43 38  1  0
 44 36  1  0
 45 44  1  6
 46 45  1  0
 46 47  1  1
 48 46  1  0
 49 48  1  0
 50 49  1  0
 51 49  1  0
 52 49  1  0
 53 45  1  0
 54 53  1  0
 55 53  1  0
 56 55  1  0
 57 56  1  0
 58 57  2  0
 59 56  1  0
 60 59  1  0
 61 59  1  0
 62 57  1  0
 63 55  1  0
 56 64  1  6
 65 59  1  0
 66 60  1  0
 67 60  1  0
 68 60  1  0
 69 61  1  0
 70 61  1  0
 71 61  1  0
M  END
$$$$
8BYZ
     RDKit          3D

 71 72  0  0  0  0  0  0  0  0999 V2000
   12.7330    7.8150   14.5720 N   0  0  0  0  0  0  0  0  0  0  0  0
   13.6010    8.9870   14.6510 C   0  0  2  0  0  0  0  0  0  0  0  0
   12.9130   10.2190   14.0570 C   0  0  0  0  0  0  0  0  0  0  0  0
   12.0500   10.0950   13.1790 O   0  0  0  0  0  0  0  0  0  0  0  0
   14.9360    8.7180   13.9420 C   0  0  0  0  0  0  0  0  0  0  0  0
   14.7960    8.0730   12.5910 C   0  0  0  0  0  0  0  0  0  0  0  0
   14.5390    8.8380   11.4620 C   0  0  0  0  0  0  0  0  0  0  0  0
   14.9310    6.6990   12.4460 C   0  0  0  0  0  0  0  0  0  0  0  0
   14.4110    8.2430   10.2190 C   0  0  0  0  0  0  0  0  0  0  0  0
   14.7990    6.1010   11.2030 C   0  0  0  0  0  0  0  0  0  0  0  0
   14.5450    6.8750   10.0890 C   0  0  0  0  0  0  0  0  0  0  0  0
   13.7950    9.1780   15.5820 H   0  0  0  0  0  0  0  0  0  0  0  0
   15.3980    9.5620   13.8190 H   0  0  0  0  0  0  0  0  0  0  0  0
   15.4680    8.1260   14.4960 H   0  0  0  0  0  0  0  0  0  0  0  0
   14.4520    9.7600   11.5420 H   0  0  0  0  0  0  0  0  0  0  0  0
   15.1130    6.1740   13.1910 H   0  0  0  0  0  0  0  0  0  0  0  0
   14.2350    8.7660    9.4700 H   0  0  0  0  0  0  0  0  0  0  0  0
   14.8820    5.1780   11.1200 H   0  0  0  0  0  0  0  0  0  0  0  0
   14.4640    6.4760    9.2530 H   0  0  0  0  0  0  0  0  0  0  0  0
   13.2850   11.4040   14.5300 N   0  0  0  0  0  0  0  0  0  0  0  0
   12.7100   12.6280   13.9670 C   0  0  2  0  0  0  0  0  0  0  0  0
   13.3170   12.9420   12.6090 C   0  0  0  0  0  0  0  0  0  0  0  0
   14.3760   12.4400   12.2210 O   0  0  0  0  0  0  0  0  0  0  0  0
   13.0800   13.6950   15.0020 C   0  0  0  0  0  0  0  0  0  0  0  0
   14.3710   13.2010   15.5830 C   0  0  0  0  0  0  0  0  0  0  0  0
   14.2200   11.6970   15.6370 C   0  0  0  0  0  0  0  0  0  0  0  0
   11.7440   12.5710   13.8920 H   0  0  0  0  0  0  0  0  0  0  0  0
   13.1960   14.5550   14.5690 H   0  0  0  0  0  0  0  0  0  0  0  0
   12.3900   13.7560   15.6810 H   0  0  0  0  0  0  0  0  0  0  0  0
   15.1110   13.4550   15.0090 H   0  0  0  0  0  0  0  0  0  0  0  0
   14.4970   13.5690   16.4710 H   0  0  0  0  0  0  0  0  0  0  0  0
   15.0740   11.2600   15.4920 H   0  0  0  0  0  0  0  0  0  0  0  0
   13.8460   11.4190   16.4870 H   0  0  0  0  0  0  0  0  0  0  0  0
   12.5930   13.7630   11.8620 N   0  0  0  0  0  0  0  0  0  0  0  0
   13.0060   14.1480   10.5340 C   0  0  2  0  0  0  0  0  0  0  0  0
   14.1180   15.1960   10.5120 C   0  0  0  0  0  0  0  0  0  0  0  0
   14.0700   16.1730   11.2440 O   0  0  0  0  0  0  0  0  0  0  0  0
   11.8010   14.6850    9.7400 C   0  0  0  0  0  0  0  0  0  0  0  0
   11.8480   14.1130   12.1110 H   0  0  0  0  0  0  0  0  0  0  0  0
   13.3610   13.3500   10.1120 H   0  0  0  0  0  0  0  0  0  0  0  0
   12.0960   14.9390    8.8510 H   0  0  0  0  0  0  0  0  0  0  0  0
   11.1280   13.9890    9.6790 H   0  0  0  0  0  0  0  0  0  0  0  0
   11.4380   15.4570   10.2010 H   0  0  0  0  0  0  0  0  0  0  0  0
   15.1180   14.9560    9.6690 N   0  0  0  0  0  0  0  0  0  0  0  0
   16.1690   15.9190    9.3260 C   0  0  1  0  0  0  0  0  0  0  0  0
   17.5000   15.6070   10.0670 C   0  0  1  0  0  0  0  0  0  0  0  0
   17.3110   15.7800   11.5770 C   0  0  0  0  0  0  0  0  0  0  0  0
   17.7920   14.2320    9.7270 O   0  0  0  0  0  0  0  0  0  0  0  0
   19.2020   13.5960   10.0970 P   0  0  0  0  0  0  0  0  0  0  0  0
   19.3120   12.3460    9.1220 O   0  0  0  0  0  0  0  0  0  0  0  0
   19.2320   13.2160   11.5030 O   0  0  0  0  0  0  0  0  0  0  0  0
   20.3330   14.6230    9.7850 O   0  0  0  0  0  0  0  0  0  0  0  0
   16.3810   15.8740    7.8290 C   0  0  0  0  0  0  0  0  0  0  0  0
   15.9750   14.9010    7.1670 O   0  0  0  0  0  0  0  0  0  0  0  0
   16.9650   16.9380    7.2900 N   0  0  0  0  0  0  0  0  0  0  0  0
   17.2320   16.9910    5.8630 C   0  0  2  0  0  0  0  0  0  0  0  0
   18.6690   17.3220    5.5590 C   0  0  0  0  0  0  0  0  0  0  0  0
   19.4530   17.7780    6.3960 O   0  0  0  0  0  0  0  0  0  0  0  0
   16.3310   17.9940    5.1360 C   0  0  0  0  0  0  0  0  0  0  0  0
   14.9010   17.5910    5.2740 C   0  0  0  0  0  0  0  0  0  0  0  0
   16.5750   19.4100    5.6410 C   0  0  0  0  0  0  0  0  0  0  0  0
   19.0780   17.1220    4.4120 O   0  0  0  0  0  0  0  0  0  0  0  0
   17.2120   17.6360    7.7280 H   0  0  0  0  0  0  0  0  0  0  0  0
   17.0460   16.0990    5.5310 H   0  0  0  0  0  0  0  0  0  0  0  0
   16.5470   17.9940    4.1910 H   0  0  0  0  0  0  0  0  0  0  0  0
   14.3460   18.2240    4.7920 H   0  0  0  0  0  0  0  0  0  0  0  0
   14.7860   16.7020    4.9030 H   0  0  0  0  0  0  0  0  0  0  0  0
   14.6620   17.5900    6.2140 H   0  0  0  0  0  0  0  0  0  0  0  0
   15.9050   20.0000    5.2610 H   0  0  0  0  0  0  0  0  0  0  0  0
   16.5100   19.4160    6.6090 H   0  0  0  0  0  0  0  0  0  0  0  0
   17.4600   19.6950    5.3670 H   0  0  0  0  0  0  0  0  0  0  0  0
  2  1  1  0
  3  2  1  0
  4  3  2  0
  5  2  1  0
  6  5  1  0
  7  6  2  0
  8  6  1  0
  9  7  1  0
 10  8  2  0
 11  9  2  0
 11 10  1  0
  2 12  1  1
 13  5  1  0
 14  5  1  0
 15  7  1  0
 16  8  1  0
 17  9  1  0
 18 10  1  0
 19 11  1  0
 20  3  1  0
 21 20  1  0
 22 21  1  0
 23 22  2  0
 24 21  1  0
 25 24  1  0
 26 25  1  0
 26 20  1  0
 21 27  1  6
 28 24  1  0
 29 24  1  0
 30 25  1  0
 31 25  1  0
 32 26  1  0
 33 26  1  0
 34 22  1  0
 35 34  1  0
 36 35  1  0
 37 36  2  0
 38 35  1  0
 39 34  1  0
 35 40  1  6
 41 38  1  0
 42 38  1  0
 43 38  1  0
 44 36  1  0
 45 44  1  6
 46 45  1  0
 46 47  1  1
 48 46  1  0
 49 48  1  0
 50 49  1  0
 51 49  1  0
 52 49  1  0
 53 45  1  0
 54 53  1  0
 55 53  1  0
 56 55  1  0
 57 56  1  0
 58 57  2  0
 59 56  1  0
 60 59  1  0
 61 59  1  0
 62 57  1  0
 63 55  1  0
 56 64  1  6
 65 59  1  0
 66 60  1  0
 67 60  1  0
 68 60  1  0
 69 61  1  0
 70 61  1  0
 71 61  1  0
M  END
$$$$
8BXI
     RDKit          3D

 76 77  0  0  0  0  0  0  0  0999 V2000
   12.8060    8.0270   14.6180 N   0  0  0  0  0  0  0  0  0  0  0  0
   13.6620    9.2090   14.6990 C   0  0  2  0  0  0  0  0  0  0  0  0
   12.9590   10.4130   14.0810 C   0  0  0  0  0  0  0  0  0  0  0  0
   12.0810   10.2570   13.2330 O   0  0  0  0  0  0  0  0  0  0  0  0
   14.9960    8.9540   13.9930 C   0  0  0  0  0  0  0  0  0  0  0  0
   14.8570    8.3400   12.6290 C   0  0  0  0  0  0  0  0  0  0  0  0
   14.5470    9.1210   11.5290 C   0  0  0  0  0  0  0  0  0  0  0  0
   15.0280    6.9740   12.4500 C   0  0  0  0  0  0  0  0  0  0  0  0
   14.4140    8.5540   10.2710 C   0  0  0  0  0  0  0  0  0  0  0  0
   14.8930    6.4010   11.1970 C   0  0  0  0  0  0  0  0  0  0  0  0
   14.5880    7.1900   10.1060 C   0  0  0  0  0  0  0  0  0  0  0  0
   13.8530    9.4090   15.6290 H   0  0  0  0  0  0  0  0  0  0  0  0
   15.4610    9.7990   13.8900 H   0  0  0  0  0  0  0  0  0  0  0  0
   15.5250    8.3490   14.5360 H   0  0  0  0  0  0  0  0  0  0  0  0
   14.4270   10.0370   11.6340 H   0  0  0  0  0  0  0  0  0  0  0  0
   15.2360    6.4380   13.1800 H   0  0  0  0  0  0  0  0  0  0  0  0
   14.2080    9.0890    9.5390 H   0  0  0  0  0  0  0  0  0  0  0  0
   15.0080    5.4840   11.0910 H   0  0  0  0  0  0  0  0  0  0  0  0
   14.4990    6.8060    9.2630 H   0  0  0  0  0  0  0  0  0  0  0  0
   13.3370   11.6130   14.5070 N   0  0  0  0  0  0  0  0  0  0  0  0
   12.7410   12.8210   13.9290 C   0  0  2  0  0  0  0  0  0  0  0  0
   13.3370   13.1370   12.5650 C   0  0  0  0  0  0  0  0  0  0  0  0
   14.3950   12.6370   12.1850 O   0  0  0  0  0  0  0  0  0  0  0  0
   13.1110   13.9000   14.9480 C   0  0  0  0  0  0  0  0  0  0  0  0
   14.4450   13.4440   15.4740 C   0  0  0  0  0  0  0  0  0  0  0  0
   14.3600   11.9310   15.5240 C   0  0  0  0  0  0  0  0  0  0  0  0
   11.7770   12.7450   13.8580 H   0  0  0  0  0  0  0  0  0  0  0  0
   13.1800   14.7640   14.5130 H   0  0  0  0  0  0  0  0  0  0  0  0
   12.4470   13.9370   15.6550 H   0  0  0  0  0  0  0  0  0  0  0  0
   15.1510   13.7300   14.8740 H   0  0  0  0  0  0  0  0  0  0  0  0
   14.5930   13.8100   16.3600 H   0  0  0  0  0  0  0  0  0  0  0  0
   15.2120   11.5300   15.2930 H   0  0  0  0  0  0  0  0  0  0  0  0
   14.0780   11.6300   16.4020 H   0  0  0  0  0  0  0  0  0  0  0  0
   12.6310   13.9930   11.8290 N   0  0  0  0  0  0  0  0  0  0  0  0
   13.0360   14.3540   10.4950 C   0  0  2  0  0  0  0  0  0  0  0  0
   14.1590   15.3770   10.4730 C   0  0  0  0  0  0  0  0  0  0  0  0
   14.1200   16.3560   11.2030 O   0  0  0  0  0  0  0  0  0  0  0  0
   11.8460   14.9200    9.7230 C   0  0  0  0  0  0  0  0  0  0  0  0
   11.9080   14.3770   12.0920 H   0  0  0  0  0  0  0  0  0  0  0  0
   13.3620   13.5470   10.0650 H   0  0  0  0  0  0  0  0  0  0  0  0
   12.1360   15.1660    8.8310 H   0  0  0  0  0  0  0  0  0  0  0  0
   11.1530   14.2430    9.6710 H   0  0  0  0  0  0  0  0  0  0  0  0
   11.5100   15.7010   10.1900 H   0  0  0  0  0  0  0  0  0  0  0  0
   15.1480   15.1260    9.6230 N   0  0  0  0  0  0  0  0  0  0  0  0
   16.2220   16.0700    9.3040 C   0  0  1  0  0  0  0  0  0  0  0  0
   17.5350   15.7240   10.0260 C   0  0  1  0  0  0  0  0  0  0  0  0
   17.3870   15.8940   11.5350 C   0  0  2  0  0  0  0  0  0  0  0  0
   17.8350   14.3690    9.6580 O   0  0  0  0  0  0  0  0  0  0  0  0
   19.2670   13.7300   10.0520 P   0  0  0  0  0  0  0  0  0  0  0  0
   19.3480   12.4540    9.1350 O   0  0  0  0  0  0  0  0  0  0  0  0
   19.2840   13.3590   11.4870 O   0  0  0  0  0  0  0  0  0  0  0  0
   20.3780   14.7780    9.7010 O   0  0  0  0  0  0  0  0  0  0  0  0
   16.4210   16.0400    7.7890 C   0  0  0  0  0  0  0  0  0  0  0  0
   16.0110   15.0680    7.1230 O   0  0  0  0  0  0  0  0  0  0  0  0
   15.9840   16.9700    9.6120 H   0  0  0  0  0  0  0  0  0  0  0  0
   18.3480   16.3890    9.7360 H   0  0  0  0  0  0  0  0  0  0  0  0
   18.3420   15.6910   12.0200 H   0  0  0  0  0  0  0  0  0  0  0  0
   16.6360   15.1970   11.9080 H   0  0  0  0  0  0  0  0  0  0  0  0
   17.0770   16.9150   11.7580 H   0  0  0  0  0  0  0  0  0  0  0  0
   17.0320   17.0770    7.2430 N   0  0  0  0  0  0  0  0  0  0  0  0
   17.2990   17.1410    5.8180 C   0  0  2  0  0  0  0  0  0  0  0  0
   18.7430   17.4790    5.5290 C   0  0  0  0  0  0  0  0  0  0  0  0
   19.5210   17.9230    6.3870 O   0  0  0  0  0  0  0  0  0  0  0  0
   16.4020   18.1690    5.0920 C   0  0  0  0  0  0  0  0  0  0  0  0
   14.9660   17.7970    5.2060 C   0  0  0  0  0  0  0  0  0  0  0  0
   16.6780   19.5680    5.6090 C   0  0  0  0  0  0  0  0  0  0  0  0
   19.1560   17.3170    4.3660 O   0  0  0  0  0  0  0  0  0  0  0  0
   17.3050   17.7650    7.6810 H   0  0  0  0  0  0  0  0  0  0  0  0
   17.1040   16.2540    5.4750 H   0  0  0  0  0  0  0  0  0  0  0  0
   16.6150   18.1660    4.1450 H   0  0  0  0  0  0  0  0  0  0  0  0
   14.8970   16.9310    5.6370 H   0  0  0  0  0  0  0  0  0  0  0  0
   14.5070   18.4680    5.7360 H   0  0  0  0  0  0  0  0  0  0  0  0
   14.5790   17.7560    4.3170 H   0  0  0  0  0  0  0  0  0  0  0  0
   15.9970   20.1700    5.2690 H   0  0  0  0  0  0  0  0  0  0  0  0
   16.6540   19.5570    6.5790 H   0  0  0  0  0  0  0  0  0  0  0  0
   17.5530   19.8520    5.3030 H   0  0  0  0  0  0  0  0  0  0  0  0
  2  1  1  0
  3  2  1  0
  4  3  2  0
  5  2  1  0
  6  5  1  0
  7  6  2  0
  8  6  1  0
  9  7  1  0
 10  8  2  0
 11  9  2  0
 11 10  1  0
  2 12  1  1
 13  5  1  0
 14  5  1  0
 15  7  1  0
 16  8  1  0
 17  9  1  0
 18 10  1  0
 19 11  1  0
 20  3  1  0
 21 20  1  0
 22 21  1  0
 23 22  2  0
 24 21  1  0
 25 24  1  0
 26 25  1  0
 26 20  1  0
 21 27  1  6
 28 24  1  0
 29 24  1  0
 30 25  1  0
 31 25  1  0
 32 26  1  0
 33 26  1  0
 34 22  1  0
 35 34  1  0
 36 35  1  0
 37 36  2  0
 38 35  1  0
 39 34  1  0
 35 40  1  6
 41 38  1  0
 42 38  1  0
 43 38  1  0
 44 36  1  0
 45 44  1  0
 46 45  1  0
 47 46  1  0
 48 46  1  0
 49 48  1  0
 50 49  1  0
 51 49  1  0
 52 49  1  0
 53 45  1  0
 54 53  1  0
 45 55  1  1
 46 56  1  6
 47 57  1  1
 58 47  1  0
 59 47  1  0
 60 53  1  0
 61 60  1  0
 62 61  1  0
 63 62  2  0
 64 61  1  0
 65 64  1  0
 66 64  1  0
 67 62  1  0
 68 60  1  0
 61 69  1  6
 70 64  1  0
 71 65  1  0
 72 65  1  0
 73 65  1  0
 74 66  1  0
 75 66  1  0
 76 66  1  0
M  END
$$$$
5KCU
     RDKit          3D

 64 63  0  0  0  0  0  0  0  0999 V2000
   -6.8290  -40.3810  -35.2140 N   0  0  0  0  0  0  0  0  0  0  0  0
   -6.5290  -39.0700  -34.6510 C   0  0  2  0  0  0  0  0  0  0  0  0
   -5.5160  -38.3200  -35.5100 C   0  0  0  0  0  0  0  0  0  0  0  0
   -4.3390  -38.6790  -35.5490 O   0  0  0  0  0  0  0  0  0  0  0  0
   -6.0070  -39.2080  -33.2190 C   0  0  0  0  0  0  0  0  0  0  0  0
   -5.9840  -37.2810  -36.1960 N   0  0  0  0  0  0  0  0  0  0  0  0
   -5.1300  -36.4740  -37.0650 C   0  0  2  0  0  0  0  0  0  0  0  0
   -3.9920  -35.8280  -36.2790 C   0  0  0  0  0  0  0  0  0  0  0  0
   -2.8540  -35.7730  -36.7490 O   0  0  0  0  0  0  0  0  0  0  0  0
   -5.9420  -35.3740  -37.7890 C   0  0  2  0  0  0  0  0  0  0  0  0
   -6.8950  -35.9970  -38.8120 C   0  0  0  0  0  0  0  0  0  0  0  0
   -5.0220  -34.3880  -38.4870 C   0  0  0  0  0  0  0  0  0  0  0  0
   -8.3480  -35.9600  -38.4020 C   0  0  0  0  0  0  0  0  0  0  0  0
   -4.3080  -35.3560  -35.0760 N   0  0  0  0  0  0  0  0  0  0  0  0
   -3.3280  -34.7110  -34.2090 C   0  0  2  0  0  0  0  0  0  0  0  0
   -2.1170  -35.6060  -33.9610 C   0  0  0  0  0  0  0  0  0  0  0  0
   -0.9750  -35.1670  -34.0930 O   0  0  0  0  0  0  0  0  0  0  0  0
   -3.9750  -34.3180  -32.8780 C   0  0  0  0  0  0  0  0  0  0  0  0
   -3.0930  -33.6110  -31.8480 C   0  0  0  0  0  0  0  0  0  0  0  0
   -2.3990  -32.4110  -32.4650 C   0  0  0  0  0  0  0  0  0  0  0  0
   -3.9200  -33.1840  -30.6470 C   0  0  0  0  0  0  0  0  0  0  0  0
   -2.3740  -36.8640  -33.6150 N   0  0  0  0  0  0  0  0  0  0  0  0
   -1.3060  -37.8270  -33.3660 C   0  0  2  0  0  0  0  0  0  0  0  0
   -0.4780  -38.0770  -34.6230 C   0  0  0  0  0  0  0  0  0  0  0  0
    0.7370  -38.2580  -34.5500 O   0  0  0  0  0  0  0  0  0  0  0  0
   -1.8840  -39.1450  -32.8470 C   0  0  0  0  0  0  0  0  0  0  0  0
   -1.1430  -38.0820  -35.7730 N   0  0  0  0  0  0  0  0  0  0  0  0
   -0.4740  -38.3160  -37.0490 C   0  0  2  0  0  0  0  0  0  0  0  0
    0.4960  -37.1880  -37.3890 C   0  0  0  0  0  0  0  0  0  0  0  0
    1.6760  -37.4290  -37.6450 O   0  0  0  0  0  0  0  0  0  0  0  0
   -1.5030  -38.4760  -38.1700 C   0  0  0  0  0  0  0  0  0  0  0  0
   -0.0110  -35.9580  -37.3870 N   0  0  0  0  0  0  0  0  0  0  0  0
    0.8020  -34.7830  -37.6880 C   0  0  2  0  0  0  0  0  0  0  0  0
    1.9430  -34.6100  -36.6900 C   0  0  0  0  0  0  0  0  0  0  0  0
    2.9710  -34.0120  -37.0060 O   0  0  0  0  0  0  0  0  0  0  0  0
   -0.0710  -33.5260  -37.7070 C   0  0  0  0  0  0  0  0  0  0  0  0
   -0.9190  -33.3030  -38.9610 C   0  0  0  0  0  0  0  0  0  0  0  0
   -2.0230  -32.2980  -38.6890 C   0  0  0  0  0  0  0  0  0  0  0  0
   -0.0430  -32.8290  -40.1060 C   0  0  0  0  0  0  0  0  0  0  0  0
    1.7550  -35.1390  -35.4850 N   0  0  0  0  0  0  0  0  0  0  0  0
    2.7780  -35.0720  -34.4480 C   0  0  2  0  0  0  0  0  0  0  0  0
    3.8820  -36.1030  -34.6720 C   0  0  0  0  0  0  0  0  0  0  0  0
    4.9720  -35.9850  -34.1120 O   0  0  0  0  0  0  0  0  0  0  0  0
    2.1500  -35.2720  -33.0660 C   0  0  0  0  0  0  0  0  0  0  0  0
    1.4930  -34.0510  -32.4180 C   0  0  0  0  0  0  0  0  0  0  0  0
    0.6370  -34.4690  -31.2340 C   0  0  0  0  0  0  0  0  0  0  0  0
    2.5460  -33.0450  -31.9880 C   0  0  0  0  0  0  0  0  0  0  0  0
    3.5980  -37.1090  -35.4950 N   0  0  0  0  0  0  0  0  0  0  0  0
    4.5370  -38.2070  -35.7160 C   0  0  2  0  0  0  0  0  0  0  0  0
    5.4410  -38.0050  -36.9300 C   0  0  0  0  0  0  0  0  0  0  0  0
    6.5480  -38.5430  -36.9760 O   0  0  0  0  0  0  0  0  0  0  0  0
    3.7790  -39.5280  -35.8690 C   0  0  0  0  0  0  0  0  0  0  0  0
    3.3310  -40.1510  -34.5590 C   0  0  0  0  0  0  0  0  0  0  0  0
    2.6200  -41.4750  -34.7610 C   0  0  0  0  0  0  0  0  0  0  0  0
    1.9500  -41.6840  -35.7720 O   0  0  0  0  0  0  0  0  0  0  0  0
    2.7690  -42.3790  -33.8000 N   0  0  0  0  0  0  0  0  0  0  0  0
    4.9690  -37.2380  -37.9090 N   0  0  0  0  0  0  0  0  0  0  0  0
    5.7020  -37.0480  -39.1590 C   0  0  2  0  0  0  0  0  0  0  0  0
    7.0790  -36.4280  -38.9400 C   0  0  0  0  0  0  0  0  0  0  0  0
    8.0510  -36.8110  -39.5940 O   0  0  0  0  0  0  0  0  0  0  0  0
    4.8930  -36.1770  -40.1230 C   0  0  0  0  0  0  0  0  0  0  0  0
    3.6720  -36.8900  -40.6690 C   0  0  0  0  0  0  0  0  0  0  0  0
    3.6050  -38.1330  -40.5550 O   0  0  0  0  0  0  0  0  0  0  0  0
    2.7790  -36.2080  -41.2140 O   0  0  0  0  0  0  0  0  0  0  0  0
  2  1  1  0
  3  2  1  0
  4  3  2  0
  2  5  1  1
  6  3  1  0
  7  6  1  1
  8  7  1  0
  9  8  2  0
 10  7  1  0
 11 10  1  0
 10 12  1  6
 13 11  1  0
 14  8  1  0
 15 14  1  0
 16 15  1  0
 17 16  2  0
 15 18  1  1
 19 18  1  0
 20 19  1  0
 21 19  1  0
 22 16  1  0
 23 22  1  0
 24 23  1  0
 25 24  2  0
 23 26  1  6
 27 24  1  0
 28 27  1  0
 29 28  1  0
 30 29  2  0
 28 31  1  6
 32 29  1  0
 33 32  1  0
 34 33  1  0
 35 34  2  0
 33 36  1  1
 37 36  1  0
 38 37  1  0
 39 37  1  0
 40 34  1  0
 41 40  1  0
 42 41  1  0
 43 42  2  0
 41 44  1  1
 45 44  1  0
 46 45  1  0
 47 45  1  0
 48 42  1  0
 49 48  1  0
 50 49  1  0
 51 50  2  0
 49 52  1  6
 53 52  1  0
 54 53  1  0
 55 54  2  0
 56 54  1  0
 57 50  1  0
 58 57  1  0
 59 58  1  0
 60 59  2  0
 58 61  1  6
 62 61  1  0
 63 62  2  0
 64 62  1  0
M  END
$$$$
3DT3
     RDKit          3D

 27 30  0  0  0  0  0  0  0  0999 V2000
   42.2490   -1.7720   15.9690 C   0  0  0  0  0  0  0  0  0  0  0  0
   42.8450   -2.3210   18.6640 C   0  0  0  0  0  0  0  0  0  0  0  0
   43.1050   -2.7390   19.9510 C   0  0  0  0  0  0  0  0  0  0  0  0
   44.6410   -4.3730   19.1330 C   0  0  0  0  0  0  0  0  0  0  0  0
   41.9060   -4.3200   14.3880 C   0  0  0  0  0  0  0  0  0  0  0  0
   41.1000   -6.5160   14.7350 C   0  0  0  0  0  0  0  0  0  0  0  0
   40.2310   -6.0090   15.6710 C   0  0  0  0  0  0  0  0  0  0  0  0
   40.1810   -4.6660   15.9810 C   0  0  0  0  0  0  0  0  0  0  0  0
   38.7360   -2.1540   14.7180 C   0  0  0  0  0  0  0  0  0  0  0  0
   40.0170   -1.5690   15.2070 C   0  0  0  0  0  0  0  0  0  0  0  0
   40.1120   -0.2050   15.3360 C   0  0  0  0  0  0  0  0  0  0  0  0
   41.2820    0.3860   15.7610 C   0  0  0  0  0  0  0  0  0  0  0  0
   41.3580    1.7550   15.8690 C   0  0  0  0  0  0  0  0  0  0  0  0
   42.5270    2.3370   16.3020 C   0  0  0  0  0  0  0  0  0  0  0  0
   42.5910    3.7130   16.4050 O   0  0  0  0  0  0  0  0  0  0  0  0
   43.6210    1.5750   16.6290 C   0  0  0  0  0  0  0  0  0  0  0  0
   43.5350    0.2060   16.5170 C   0  0  0  0  0  0  0  0  0  0  0  0
   42.3680   -0.3970   16.0840 C   0  0  0  0  0  0  0  0  0  0  0  0
   43.3080   -2.5980   16.2830 O   0  0  0  0  0  0  0  0  0  0  0  0
   43.4880   -2.9420   17.6130 C   0  0  0  0  0  0  0  0  0  0  0  0
   44.0010   -3.7570   20.1800 C   0  0  0  0  0  0  0  0  0  0  0  0
   44.2560   -4.1630   21.4800 O   0  0  0  0  0  0  0  0  0  0  0  0
   44.3800   -3.9610   17.8490 C   0  0  0  0  0  0  0  0  0  0  0  0
   41.0910   -2.3740   15.5280 C   0  0  1  0  0  0  0  0  0  0  0  0
   41.0390   -3.8060   15.3290 C   0  0  0  0  0  0  0  0  0  0  0  0
   41.9490   -5.6590   14.0860 C   0  0  0  0  0  0  0  0  0  0  0  0
   39.4030   -6.9130   16.2910 O   0  0  0  0  0  0  0  0  0  0  0  0
  3  2  1  0
  7  6  1  0
  8  7  1  0
 10  9  1  0
 11 10  1  0
 12 11  1  0
 13 12  1  0
 14 13  1  0
 15 14  1  0
 16 14  1  0
 17 16  1  0
 18 12  1  0
 18  1  1  0
 18 17  1  0
 19  1  1  0
 20 19  1  0
 20  2  1  0
 21  3  1  0
 21  4  1  0
 22 21  1  0
 23 20  1  0
 23  4  1  0
 24 10  1  0
 24  1  1  0
 24 25  1  6
 25  8  1  0
 25  5  1  0
 26  6  1  0
 26  5  1  0
 27  7  1  0
M  END
$$$$
4MGD
     RDKit          3D

 78 78  0  0  0  0  0  0  0  0999 V2000
   -0.4790  -26.3160   19.7690 N   0  0  0  0  0  0  0  0  0  0  0  0
   -0.2920  -25.1080   20.5700 C   0  0  2  0  0  0  0  0  0  0  0  0
    0.6250  -24.1250   19.8450 C   0  0  0  0  0  0  0  0  0  0  0  0
    1.8460  -24.2820   19.8580 O   0  0  0  0  0  0  0  0  0  0  0  0
    0.2940  -25.4620   21.9380 C   0  0  0  0  0  0  0  0  0  0  0  0
    0.2780  -24.3170   22.9400 C   0  0  0  0  0  0  0  0  0  0  0  0
   -1.1440  -23.9290   23.3100 C   0  0  0  0  0  0  0  0  0  0  0  0
    0.0290  -23.1110   19.2240 N   0  0  0  0  0  0  0  0  0  0  0  0
    0.7670  -22.1880   18.3620 C   0  0  2  0  0  0  0  0  0  0  0  0
    1.9700  -21.5470   19.0470 C   0  0  0  0  0  0  0  0  0  0  0  0
    3.0770  -21.5650   18.5130 O   0  0  0  0  0  0  0  0  0  0  0  0
   -0.1450  -21.0790   17.8000 C   0  0  2  0  0  0  0  0  0  0  0  0
   -1.2810  -21.6900   16.9770 C   0  0  0  0  0  0  0  0  0  0  0  0
    0.6620  -20.1040   16.9550 C   0  0  0  0  0  0  0  0  0  0  0  0
   -2.2100  -20.6690   16.3630 C   0  0  0  0  0  0  0  0  0  0  0  0
    1.7500  -20.9730   20.2240 N   0  0  0  0  0  0  0  0  0  0  0  0
    2.8280  -20.3250   20.9580 C   0  0  2  0  0  0  0  0  0  0  0  0
    3.9500  -21.3160   21.2570 C   0  0  0  0  0  0  0  0  0  0  0  0
    5.1340  -20.9860   21.1720 O   0  0  0  0  0  0  0  0  0  0  0  0
    2.2930  -19.7220   22.2560 C   0  0  0  0  0  0  0  0  0  0  0  0
    3.3350  -19.1660   23.2230 C   0  0  0  0  0  0  0  0  0  0  0  0
    4.1170  -18.0290   22.5790 C   0  0  0  0  0  0  0  0  0  0  0  0
    2.6690  -18.7070   24.5150 C   0  0  0  0  0  0  0  0  0  0  0  0
    3.5590  -22.5380   21.5970 N   0  0  0  0  0  0  0  0  0  0  0  0
    4.5030  -23.6040   21.9070 C   0  0  2  0  0  0  0  0  0  0  0  0
    5.4190  -23.8880   20.7190 C   0  0  0  0  0  0  0  0  0  0  0  0
    6.6290  -24.0690   20.8740 O   0  0  0  0  0  0  0  0  0  0  0  0
    3.7310  -24.8690   22.2900 C   0  0  0  0  0  0  0  0  0  0  0  0
    4.6040  -26.0340   22.6290 C   0  0  0  0  0  0  0  0  0  0  0  0
    5.3030  -26.1200   23.8130 N   0  0  0  0  0  0  0  0  0  0  0  0
    4.8880  -27.1640   21.9390 C   0  0  0  0  0  0  0  0  0  0  0  0
    5.9790  -27.2540   23.8390 C   0  0  0  0  0  0  0  0  0  0  0  0
    5.7480  -27.9040   22.7130 N   0  0  0  0  0  0  0  0  0  0  0  0
    4.8280  -23.9160   19.5310 N   0  0  0  0  0  0  0  0  0  0  0  0
    5.5570  -24.2300   18.3120 C   0  0  2  0  0  0  0  0  0  0  0  0
    6.5090  -23.0990   17.9240 C   0  0  0  0  0  0  0  0  0  0  0  0
    7.6790  -23.3360   17.6190 O   0  0  0  0  0  0  0  0  0  0  0  0
    4.5660  -24.5030   17.1830 C   0  0  0  0  0  0  0  0  0  0  0  0
    5.1780  -25.0660   15.9180 C   0  0  0  0  0  0  0  0  0  0  0  0
    4.0920  -25.3730   14.9010 C   0  0  0  0  0  0  0  0  0  0  0  0
    3.1640  -24.2560   14.7580 N   0  0  0  0  0  0  0  0  0  0  0  0
    3.3550  -23.2270   13.9400 C   0  0  0  0  0  0  0  0  0  0  0  0
    4.4430  -23.1680   13.1840 N   0  0  0  0  0  0  0  0  0  0  0  0
    2.4550  -22.2570   13.8780 N   0  0  0  0  0  0  0  0  0  0  0  0
    5.9990  -21.8710   17.9420 N   0  0  0  0  0  0  0  0  0  0  0  0
    6.7980  -20.6980   17.6020 C   0  0  2  0  0  0  0  0  0  0  0  0
    8.0100  -20.5460   18.5170 C   0  0  0  0  0  0  0  0  0  0  0  0
    9.0470  -20.0300   18.1070 O   0  0  0  0  0  0  0  0  0  0  0  0
    5.9380  -19.4330   17.6400 C   0  0  0  0  0  0  0  0  0  0  0  0
    4.7570  -19.4260   16.6690 C   0  0  0  0  0  0  0  0  0  0  0  0
    4.0100  -18.1080   16.7320 C   0  0  0  0  0  0  0  0  0  0  0  0
    5.2300  -19.7060   15.2490 C   0  0  0  0  0  0  0  0  0  0  0  0
    7.8770  -20.9930   19.7590 N   0  0  0  0  0  0  0  0  0  0  0  0
    8.9960  -20.9500   20.6920 C   0  0  2  0  0  0  0  0  0  0  0  0
   10.0700  -21.9710   20.3210 C   0  0  0  0  0  0  0  0  0  0  0  0
   11.2280  -21.8370   20.7200 O   0  0  0  0  0  0  0  0  0  0  0  0
    8.5190  -21.1810   22.1250 C   0  0  0  0  0  0  0  0  0  0  0  0
    7.9750  -19.9540   22.8580 C   0  0  0  0  0  0  0  0  0  0  0  0
    7.2880  -20.3630   24.1500 C   0  0  0  0  0  0  0  0  0  0  0  0
    9.0970  -18.9610   23.1240 C   0  0  0  0  0  0  0  0  0  0  0  0
    9.6790  -22.9890   19.5600 N   0  0  0  0  0  0  0  0  0  0  0  0
   10.6160  -24.0310   19.1410 C   0  0  2  0  0  0  0  0  0  0  0  0
   11.4580  -23.6400   17.9240 C   0  0  0  0  0  0  0  0  0  0  0  0
   12.6860  -23.7070   17.9700 O   0  0  0  0  0  0  0  0  0  0  0  0
    9.8910  -25.3570   18.9020 C   0  0  0  0  0  0  0  0  0  0  0  0
    9.4880  -26.0570   20.1870 C   0  0  0  0  0  0  0  0  0  0  0  0
    9.0450  -27.4880   19.9660 C   0  0  0  0  0  0  0  0  0  0  0  0
    8.2800  -27.7800   19.0460 O   0  0  0  0  0  0  0  0  0  0  0  0
    9.5290  -28.3910   20.8090 N   0  0  0  0  0  0  0  0  0  0  0  0
   10.8080  -23.2330   16.8390 N   0  0  0  0  0  0  0  0  0  0  0  0
   11.5470  -22.8090   15.6530 C   0  0  2  0  0  0  0  0  0  0  0  0
   12.0810  -21.3870   15.8020 C   0  0  0  0  0  0  0  0  0  0  0  0
   11.4740  -20.4280   15.3230 O   0  0  0  0  0  0  0  0  0  0  0  0
   10.6910  -22.9360   14.3900 C   0  0  0  0  0  0  0  0  0  0  0  0
    9.2980  -22.3470   14.5080 C   0  0  0  0  0  0  0  0  0  0  0  0
    8.2160  -23.3960   14.3460 C   0  0  0  0  0  0  0  0  0  0  0  0
    7.1160  -23.0480   13.8670 O   0  0  0  0  0  0  0  0  0  0  0  0
    8.4680  -24.5710   14.6980 O   0  0  0  0  0  0  0  0  0  0  0  0
  2  1  1  6
  3  2  1  0
  4  3  2  0
  5  2  1  0
  6  5  1  0
  7  6  1  0
  8  3  1  0
  9  8  1  1
 10  9  1  0
 11 10  2  0
 12  9  1  0
 13 12  1  0
 12 14  1  6
 15 13  1  0
 16 10  1  0
 17 16  1  0
 18 17  1  0
 19 18  2  0
 17 20  1  1
 21 20  1  0
 22 21  1  0
 23 21  1  0
 24 18  1  0
 25 24  1  0
 26 25  1  0
 27 26  2  0
 25 28  1  6
 29 28  1  0
 30 29  1  0
 31 29  2  0
 32 30  2  0
 33 31  1  0
 33 32  1  0
 34 26  1  0
 35 34  1  0
 36 35  1  0
 37 36  2  0
 35 38  1  6
 39 38  1  0
 40 39  1  0
 41 40  1  0
 42 41  1  0
 43 42  1  0
 44 42  2  0
 45 36  1  0
 46 45  1  0
 47 46  1  0
 48 47  2  0
 46 49  1  1
 50 49  1  0
 51 50  1  0
 52 50  1  0
 53 47  1  0
 54 53  1  0
 55 54  1  0
 56 55  2  0
 54 57  1  1
 58 57  1  0
 59 58  1  0
 60 58  1  0
 61 55  1  0
 62 61  1  0
 63 62  1  0
 64 63  2  0
 62 65  1  6
 66 65  1  0
 67 66  1  0
 68 67  2  0
 69 67  1  0
 70 63  1  0
 71 70  1  0
 72 71  1  0
 73 72  2  0
 71 74  1  6
 75 74  1  0
 76 75  1  0
 77 76  2  0
 78 76  1  0
M  END
$$$$
2QGT
     RDKit          3D

 23 26  0  0  0  0  0  0  0  0999 V2000
   21.5010    4.8810    1.5050 C   0  0  2  0  0  0  0  0  0  0  0  0
   22.3520    4.5680    2.7300 C   0  0  0  0  0  0  0  0  0  0  0  0
   23.7070    4.2750    2.5810 C   0  0  0  0  0  0  0  0  0  0  0  0
   24.5160    4.0060    3.7080 C   0  0  0  0  0  0  0  0  0  0  0  0
   23.9390    4.0840    4.9670 C   0  0  0  0  0  0  0  0  0  0  0  0
   24.6180    3.8240    6.1350 O   0  0  0  0  0  0  0  0  0  0  0  0
   22.5940    4.3830    5.0640 C   0  0  0  0  0  0  0  0  0  0  0  0
   21.7790    4.6240    3.9880 C   0  0  0  0  0  0  0  0  0  0  0  0
   20.3000    4.9530    4.2970 C   0  0  0  0  0  0  0  0  0  0  0  0
   19.7280    5.7060    3.0940 C   0  0  0  0  0  0  0  0  0  0  0  0
   20.0080    4.9090    1.8210 C   0  0  1  0  0  0  0  0  0  0  0  0
   19.3220    5.4740    0.5670 C   0  0  2  0  0  0  0  0  0  0  0  0
   17.8270    5.7530    0.6220 C   0  0  0  0  0  0  0  0  0  0  0  0
   17.4150    5.7430   -0.8720 C   0  0  0  0  0  0  0  0  0  0  0  0
   18.6550    5.2450   -1.6500 C   0  0  2  0  0  0  0  0  0  0  0  0
   18.2540    4.4490   -2.7770 O   0  0  0  0  0  0  0  0  0  0  0  0
   19.4260    4.4590   -0.5840 C   0  0  2  0  0  0  0  0  0  0  0  0
   18.7490    3.0970   -0.2970 C   0  0  0  0  0  0  0  0  0  0  0  0
   20.9260    4.3010   -0.9200 C   0  0  0  0  0  0  0  0  0  0  0  0
   21.8000    3.9740    0.3070 C   0  0  2  0  0  0  0  0  0  0  0  0
   21.7890    2.4800    0.6630 C   0  0  0  0  0  0  0  0  0  0  0  0
   22.1590    1.8380   -0.5450 O   0  0  0  0  0  0  0  0  0  0  0  0
   21.9410    0.4300   -0.3930 C   0  0  0  0  0  0  0  0  0  0  0  0
  1  2  1  1
  3  2  1  0
  4  3  1  0
  5  4  1  0
  6  5  1  0
  7  5  1  0
  8  7  1  0
  8  2  1  0
  9  8  1  0
 10  9  1  0
 11  1  1  0
 11 10  1  1
 12 11  1  0
 12 13  1  1
 14 13  1  0
 15 14  1  0
 15 16  1  6
 17 15  1  0
 17 12  1  0
 17 18  1  1
 19 17  1  0
 20 19  1  0
 20  1  1  0
 20 21  1  1
 22 21  1  0
 23 22  1  0
M  END
$$$$
5AAV
     RDKit          3D

 63 62  0  0  0  0  0  0  0  0999 V2000
   56.1780   -5.9790    3.0630 N   0  0  0  0  0  0  0  0  0  0  0  0
   55.6170   -7.1210    2.3510 C   0  0  2  0  0  0  0  0  0  0  0  0
   56.7750   -7.9850    1.8980 C   0  0  0  0  0  0  0  0  0  0  0  0
   56.7990   -9.1750    2.1680 O   0  0  0  0  0  0  0  0  0  0  0  0
   54.7750   -6.6590    1.1570 C   0  0  0  0  0  0  0  0  0  0  0  0
   57.7290   -7.3590    1.2160 N   0  0  0  0  0  0  0  0  0  0  0  0
   59.0430   -7.9360    0.8880 C   0  0  2  0  0  0  0  0  0  0  0  0
   59.6530   -8.7310    2.0740 C   0  0  0  0  0  0  0  0  0  0  0  0
   59.8820   -9.9390    1.9650 O   0  0  0  0  0  0  0  0  0  0  0  0
   59.9850   -6.7880    0.4390 C   0  0  0  0  0  0  0  0  0  0  0  0
   60.9240   -7.1850   -0.6840 C   0  0  0  0  0  0  0  0  0  0  0  0
   61.8950   -7.9230   -0.4050 O   0  0  0  0  0  0  0  0  0  0  0  0
   60.7130   -6.7270   -1.8400 O   0  0  0  0  0  0  0  0  0  0  0  0
   59.8850   -8.0530    3.2000 N   0  0  0  0  0  0  0  0  0  0  0  0
   60.4680   -8.6860    4.4040 C   0  0  2  0  0  0  0  0  0  0  0  0
   59.5030   -9.7110    4.9910 C   0  0  0  0  0  0  0  0  0  0  0  0
   59.8730  -10.8680    5.1980 O   0  0  0  0  0  0  0  0  0  0  0  0
   60.8380   -7.6370    5.4700 C   0  0  0  0  0  0  0  0  0  0  0  0
   61.2590   -8.1200    6.8830 C   0  0  0  0  0  0  0  0  0  0  0  0
   62.2910   -9.2460    6.8870 C   0  0  0  0  0  0  0  0  0  0  0  0
   61.7830   -6.9490    7.7060 C   0  0  0  0  0  0  0  0  0  0  0  0
   58.2760   -9.2640    5.2540 N   0  0  0  0  0  0  0  0  0  0  0  0
   57.1840  -10.1350    5.7140 C   0  0  2  0  0  0  0  0  0  0  0  0
   57.0770  -11.4010    4.8900 C   0  0  0  0  0  0  0  0  0  0  0  0
   57.1360  -12.5020    5.4190 O   0  0  0  0  0  0  0  0  0  0  0  0
   55.8410   -9.3980    5.6640 C   0  0  0  0  0  0  0  0  0  0  0  0
   55.4270   -8.6300    6.9210 C   0  0  0  0  0  0  0  0  0  0  0  0
   56.4980   -7.6680    7.4170 C   0  0  0  0  0  0  0  0  0  0  0  0
   54.1300   -7.8760    6.6380 C   0  0  0  0  0  0  0  0  0  0  0  0
   56.9680  -11.2230    3.5790 N   0  0  0  0  0  0  0  0  0  0  0  0
   56.7270  -12.3180    2.6440 C   0  0  2  0  0  0  0  0  0  0  0  0
   57.9170  -13.2610    2.5400 C   0  0  0  0  0  0  0  0  0  0  0  0
   57.7120  -14.4540    2.3930 O   0  0  0  0  0  0  0  0  0  0  0  0
   56.3370  -11.7620    1.2580 C   0  0  0  0  0  0  0  0  0  0  0  0
   55.6100  -12.5970    0.2040 C   0  0  0  0  0  0  0  0  0  0  0  0
   54.6140  -13.5590    0.8320 C   0  0  0  0  0  0  0  0  0  0  0  0
   54.9120  -11.6520   -0.7710 C   0  0  0  0  0  0  0  0  0  0  0  0
   59.1470  -12.7410    2.6340 N   0  0  0  0  0  0  0  0  0  0  0  0
   60.3500  -13.5920    2.6510 C   0  0  2  0  0  0  0  0  0  0  0  0
   60.3980  -14.4570    3.9140 C   0  0  0  0  0  0  0  0  0  0  0  0
   60.4960  -15.6840    3.8310 O   0  0  0  0  0  0  0  0  0  0  0  0
   61.6310  -12.7550    2.5450 C   0  0  0  0  0  0  0  0  0  0  0  0
   60.3040  -13.8110    5.0750 N   0  0  0  0  0  0  0  0  0  0  0  0
   60.3410  -14.5130    6.3580 C   0  0  2  0  0  0  0  0  0  0  0  0
   59.1320  -15.4420    6.5630 C   0  0  0  0  0  0  0  0  0  0  0  0
   59.3000  -16.5690    7.0390 O   0  0  0  0  0  0  0  0  0  0  0  0
   60.4570  -13.5120    7.5120 C   0  0  0  0  0  0  0  0  0  0  0  0
   57.9270  -14.9900    6.1990 N   0  0  0  0  0  0  0  0  0  0  0  0
   56.7200  -15.8140    6.3790 C   0  0  2  0  0  0  0  0  0  0  0  0
   56.6530  -16.9820    5.3940 C   0  0  0  0  0  0  0  0  0  0  0  0
   56.1490  -18.0530    5.7350 O   0  0  0  0  0  0  0  0  0  0  0  0
   55.4350  -14.9750    6.3000 C   0  0  0  0  0  0  0  0  0  0  0  0
   55.1650  -14.0530    7.4950 C   0  0  0  0  0  0  0  0  0  0  0  0
   54.1350  -12.9920    7.1530 C   0  0  0  0  0  0  0  0  0  0  0  0
   54.7200  -14.8540    8.7100 C   0  0  0  0  0  0  0  0  0  0  0  0
   57.1560  -16.7660    4.1790 N   0  0  0  0  0  0  0  0  0  0  0  0
   57.2360  -17.8070    3.1550 C   0  0  2  0  0  0  0  0  0  0  0  0
   58.6420  -18.3980    3.1510 C   0  0  0  0  0  0  0  0  0  0  0  0
   58.8680  -19.4820    2.6090 O   0  0  0  0  0  0  0  0  0  0  0  0
   56.9000  -17.2050    1.7820 C   0  0  0  0  0  0  0  0  0  0  0  0
   56.6010  -18.2460    0.7280 C   0  0  0  0  0  0  0  0  0  0  0  0
   55.9140  -19.2460    1.0320 O   0  0  0  0  0  0  0  0  0  0  0  0
   57.0520  -18.0480   -0.4220 O   0  0  0  0  0  0  0  0  0  0  0  0
  2  1  1  0
  3  2  1  0
  4  3  2  0
  2  5  1  6
  6  3  1  0
  7  6  1  0
  8  7  1  0
  9  8  2  0
  7 10  1  1
 11 10  1  0
 12 11  2  0
 13 11  1  0
 14  8  1  0
 15 14  1  0
 16 15  1  0
 17 16  2  0
 15 18  1  1
 19 18  1  0
 20 19  1  0
 21 19  1  0
 22 16  1  0
 23 22  1  0
 24 23  1  0
 25 24  2  0
 23 26  1  6
 27 26  1  0
 28 27  1  0
 29 27  1  0
 30 24  1  0
 31 30  1  0
 32 31  1  0
 33 32  2  0
 31 34  1  6
 35 34  1  0
 36 35  1  0
 37 35  1  0
 38 32  1  0
 39 38  1  0
 40 39  1  0
 41 40  2  0
 39 42  1  1
 43 40  1  0
 44 43  1  0
 45 44  1  0
 46 45  2  0
 44 47  1  1
 48 45  1  0
 49 48  1  0
 50 49  1  0
 51 50  2  0
 49 52  1  6
 53 52  1  0
 54 53  1  0
 55 53  1  0
 56 50  1  0
 57 56  1  0
 58 57  1  0
 59 58  2  0
 57 60  1  6
 61 60  1  0
 62 61  2  0
 63 61  1  0
M  END
$$$$
5TMZ
     RDKit          3D

 21 24  0  0  0  0  0  0  0  0999 V2000
   15.4290   -1.0710    2.2060 C   0  0  0  0  0  0  0  0  0  0  0  0
   16.2540   -0.9550    1.1540 C   0  0  0  0  0  0  0  0  0  0  0  0
   17.5460   -1.2700    1.3510 C   0  0  0  0  0  0  0  0  0  0  0  0
   18.0160   -1.6860    2.5440 C   0  0  0  0  0  0  0  0  0  0  0  0
   17.1760   -1.8000    3.5950 C   0  0  0  0  0  0  0  0  0  0  0  0
   15.8820   -1.4850    3.3990 C   0  0  0  0  0  0  0  0  0  0  0  0
   19.4930   -2.0100    2.6470 C   0  0  0  0  0  0  0  0  0  0  0  0
   20.0150   -2.1030    4.0860 C   0  0  0  0  0  0  0  0  0  0  0  0
   19.0410   -2.9550    4.9070 C   0  0  2  0  0  0  0  0  0  0  0  0
   17.6610   -2.2580    4.9670 C   0  0  2  0  0  0  0  0  0  0  0  0
   19.5050   -3.1830    6.3460 C   0  0  1  0  0  0  0  0  0  0  0  0
   18.5820   -4.1660    7.0920 C   0  0  2  0  0  0  0  0  0  0  0  0
   17.2030   -3.4950    7.1780 C   0  0  0  0  0  0  0  0  0  0  0  0
   16.6640   -3.1110    5.7830 C   0  0  0  0  0  0  0  0  0  0  0  0
   20.9060   -3.7380    6.6180 C   0  0  0  0  0  0  0  0  0  0  0  0
   20.8280   -4.1030    8.1180 C   0  0  1  0  0  0  0  0  0  0  0  0
   19.3290   -4.3030    8.4280 C   0  0  2  0  0  0  0  0  0  0  0  0
   18.4350   -5.5600    6.4340 C   0  0  0  0  0  0  0  0  0  0  0  0
   15.7950   -0.5360   -0.0550 O   0  0  0  0  0  0  0  0  0  0  0  0
   21.7740   -5.2590    8.4820 C   0  0  0  0  0  0  0  0  0  0  0  0
   19.0510   -5.5290    9.0550 O   0  0  0  0  0  0  0  0  0  0  0  0
  2  1  1  0
  3  2  1  0
  4  3  1  0
  5  4  1  0
  6  1  1  0
  6  5  1  0
  7  4  1  0
  8  7  1  0
  9  8  1  6
 10  9  1  0
 10  5  1  0
 11  9  1  0
 12 11  1  0
 13 12  1  0
 10 14  1  6
 14 13  1  0
 11 15  1  6
 16 15  1  0
 17 16  1  0
 17 12  1  0
 12 18  1  6
 19  2  1  0
 16 20  1  6
 17 21  1  6
M  END
$$$$
8DUH
     RDKit          3D

 36 42  0  0  0  0  0  0  0  0999 V2000
   43.2620   -5.8010   15.3660 N   0  0  0  0  0  0  0  0  0  0  0  0
   43.0650   -1.5680   15.7300 C   0  0  0  0  0  0  0  0  0  0  0  0
   43.1130   -2.9760   15.7040 C   0  0  0  0  0  0  0  0  0  0  0  0
   44.2270   -3.6520   16.0900 C   0  0  0  0  0  0  0  0  0  0  0  0
   41.8630   -3.6910   15.2090 C   0  0  0  0  0  0  0  0  0  0  0  0
   41.9640   -5.1950   15.5590 C   0  0  1  0  0  0  0  0  0  0  0  0
   43.5790   -6.9550   14.5520 C   0  0  1  0  0  0  0  0  0  0  0  0
   41.3520   -7.2030   11.5650 C   0  0  0  0  0  0  0  0  0  0  0  0
   41.3770   -9.3660   12.5810 C   0  0  0  0  0  0  0  0  0  0  0  0
   40.7380   -5.9720   15.1350 C   0  0  0  0  0  0  0  0  0  0  0  0
   45.4850   -6.6150   17.8400 C   0  0  0  0  0  0  0  0  0  0  0  0
   45.6760   -7.0530   19.1420 C   0  0  0  0  0  0  0  0  0  0  0  0
   44.8710   -6.5590   20.1550 C   0  0  0  0  0  0  0  0  0  0  0  0
   43.7240   -5.2070   18.5500 C   0  0  0  0  0  0  0  0  0  0  0  0
   46.3060   -7.2830   23.4540 C   0  0  2  0  0  0  0  0  0  0  0  0
   46.4690   -6.4940   26.3450 C   0  0  0  0  0  0  0  0  0  0  0  0
   45.3480   -2.9120   16.5280 C   0  0  0  0  0  0  0  0  0  0  0  0
   42.6010   -7.6370   13.5690 C   0  0  1  0  0  0  0  0  0  0  0  0
   42.1830   -6.7760   12.5670 C   0  0  0  0  0  0  0  0  0  0  0  0
   40.9310   -8.5030   11.5840 C   0  0  0  0  0  0  0  0  0  0  0  0
   42.2510   -8.9580   13.5730 C   0  0  0  0  0  0  0  0  0  0  0  0
   40.9520   -5.6200   16.5800 C   0  0  0  0  0  0  0  0  0  0  0  0
   44.5130   -5.6900   17.5340 C   0  0  0  0  0  0  0  0  0  0  0  0
   45.3050   -1.5390   16.5610 C   0  0  0  0  0  0  0  0  0  0  0  0
   43.9030   -5.6510   19.8360 C   0  0  0  0  0  0  0  0  0  0  0  0
   46.3030   -7.1940   21.9100 C   0  0  0  0  0  0  0  0  0  0  0  0
   47.2510   -6.7710   25.3340 C   0  0  0  0  0  0  0  0  0  0  0  0
   45.5770   -5.4670   25.8570 C   0  0  0  0  0  0  0  0  0  0  0  0
   44.1750   -0.8660   16.1600 C   0  0  0  0  0  0  0  0  0  0  0  0
   45.5630   -5.7100   24.3080 C   0  0  2  0  0  0  0  0  0  0  0  0
   45.4970   -4.2790   23.6630 C   0  0  0  0  0  0  0  0  0  0  0  0
   44.3120   -5.1700   16.1170 C   0  0  1  0  0  0  0  0  0  0  0  0
   46.5870   -6.3310   23.9810 N   0  0  0  0  0  0  0  0  0  0  0  0
   44.6500   -7.2560   14.5380 O   0  0  0  0  0  0  0  0  0  0  0  0
   44.1230    0.4890   16.1920 O   0  0  0  0  0  0  0  0  0  0  0  0
   44.9980   -6.9710   21.4840 O   0  0  0  0  0  0  0  0  0  0  0  0
  3  2  1  0
  4  3  1  0
  5  3  1  0
  6  1  1  0
  6  5  1  6
  7  1  1  0
 10  6  1  0
 12 11  1  0
 13 12  1  0
 17  4  1  0
 18  7  1  0
 18 19  1  6
 19  8  1  0
 20  9  1  0
 20  8  1  0
 21 18  1  0
 21  9  1  0
 22 10  1  0
 22  6  1  0
 23 11  1  0
 23 14  1  0
 24 17  1  0
 25 13  1  0
 25 14  1  0
 15 26  1  6
 27 16  1  0
 28 16  1  0
 29  2  1  0
 29 24  1  0
 30 28  1  0
 30 15  1  0
 30 31  1  1
 32  1  1  0
 32 23  1  1
 32  4  1  0
 33 30  1  0
 33 27  1  0
 33 15  1  0
  7 34  1  6
 35 29  1  0
 36 13  1  0
 36 26  1  0
M  END
$$$$
5TMM
     RDKit          3D

 52 51  0  0  0  0  0  0  0  0999 V2000
   -0.0410  -18.2460   20.9010 N   0  0  0  0  0  0  0  0  0  0  0  0
    0.0900  -16.8270   21.2110 C   0  0  2  0  0  0  0  0  0  0  0  0
    1.0410  -16.1400   20.2380 C   0  0  0  0  0  0  0  0  0  0  0  0
    2.1980  -16.5380   20.1030 O   0  0  0  0  0  0  0  0  0  0  0  0
    0.5790  -16.6340   22.6480 C   0  0  0  0  0  0  0  0  0  0  0  0
    0.5430  -15.1040   19.5600 N   0  0  0  0  0  0  0  0  0  0  0  0
    1.3670  -14.3820   18.5950 C   0  0  2  0  0  0  0  0  0  0  0  0
    2.4980  -13.6460   19.3020 C   0  0  0  0  0  0  0  0  0  0  0  0
    3.6140  -13.5440   18.7770 O   0  0  0  0  0  0  0  0  0  0  0  0
    0.4950  -13.4240   17.7640 C   0  0  2  0  0  0  0  0  0  0  0  0
   -0.5940  -14.2060   17.0290 C   0  0  0  0  0  0  0  0  0  0  0  0
    1.3450  -12.6370   16.7770 C   0  0  0  0  0  0  0  0  0  0  0  0
   -1.4010  -13.3660   16.0740 C   0  0  0  0  0  0  0  0  0  0  0  0
    2.2330  -13.1260   20.5030 N   0  0  0  0  0  0  0  0  0  0  0  0
    3.2790  -12.4480   21.2610 C   0  0  2  0  0  0  0  0  0  0  0  0
    4.4250  -13.3960   21.5900 C   0  0  0  0  0  0  0  0  0  0  0  0
    5.5950  -12.9970   21.5760 O   0  0  0  0  0  0  0  0  0  0  0  0
    2.6920  -11.8460   22.5390 C   0  0  0  0  0  0  0  0  0  0  0  0
    3.6810  -11.2210   23.5260 C   0  0  0  0  0  0  0  0  0  0  0  0
    4.4940  -10.1240   22.8600 C   0  0  0  0  0  0  0  0  0  0  0  0
    2.9530  -10.6810   24.7430 C   0  0  0  0  0  0  0  0  0  0  0  0
    4.1090  -14.6610   21.8790 N   0  0  0  0  0  0  0  0  0  0  0  0
    5.1570  -15.6340   22.1680 C   0  0  2  0  0  0  0  0  0  0  0  0
    5.9670  -15.9600   20.9200 C   0  0  0  0  0  0  0  0  0  0  0  0
    7.1810  -16.1850   21.0010 O   0  0  0  0  0  0  0  0  0  0  0  0
    4.5440  -16.9040   22.7590 C   0  0  0  0  0  0  0  0  0  0  0  0
    5.3160  -15.9870   19.7550 N   0  0  0  0  0  0  0  0  0  0  0  0
    6.0240  -16.2980   18.5170 C   0  0  2  0  0  0  0  0  0  0  0  0
    6.9270  -15.1450   18.0960 C   0  0  0  0  0  0  0  0  0  0  0  0
    8.0840  -15.3570   17.7130 O   0  0  0  0  0  0  0  0  0  0  0  0
    5.0240  -16.6330   17.4110 C   0  0  0  0  0  0  0  0  0  0  0  0
    6.4140  -13.9130   18.1590 N   0  0  0  0  0  0  0  0  0  0  0  0
    7.2220  -12.7580   17.7830 C   0  0  2  0  0  0  0  0  0  0  0  0
    8.3980  -12.5640   18.7310 C   0  0  0  0  0  0  0  0  0  0  0  0
    9.4650  -12.1040   18.3100 O   0  0  0  0  0  0  0  0  0  0  0  0
    6.3530  -11.5010   17.7430 C   0  0  0  0  0  0  0  0  0  0  0  0
    5.2480  -11.4970   16.6850 C   0  0  0  0  0  0  0  0  0  0  0  0
    4.4230  -10.2230   16.7650 C   0  0  0  0  0  0  0  0  0  0  0  0
    5.8400  -11.6680   15.2950 C   0  0  0  0  0  0  0  0  0  0  0  0
    8.2270  -12.9090   20.0100 N   0  0  0  0  0  0  0  0  0  0  0  0
    9.3410  -12.8540   20.9480 C   0  0  2  0  0  0  0  0  0  0  0  0
   10.3660  -13.9490   20.6910 C   0  0  0  0  0  0  0  0  0  0  0  0
   11.5010  -13.8430   21.1690 O   0  0  0  0  0  0  0  0  0  0  0  0
    8.8270  -12.9500   22.3860 C   0  0  0  0  0  0  0  0  0  0  0  0
    8.2830  -11.6640   23.0090 C   0  0  0  0  0  0  0  0  0  0  0  0
    7.5240  -11.9630   24.2920 C   0  0  0  0  0  0  0  0  0  0  0  0
    9.4110  -10.6790   23.2690 C   0  0  0  0  0  0  0  0  0  0  0  0
    9.9960  -14.9910   19.9530 N   0  0  0  0  0  0  0  0  0  0  0  0
   10.9140  -16.0810   19.6460 C   0  0  2  0  0  0  0  0  0  0  0  0
   11.4970  -15.9260   18.2450 C   0  0  0  0  0  0  0  0  0  0  0  0
   12.6720  -15.5960   18.0840 O   0  0  0  0  0  0  0  0  0  0  0  0
   10.2040  -17.4310   19.7740 C   0  0  0  0  0  0  0  0  0  0  0  0
  2  1  1  0
  3  2  1  0
  4  3  2  0
  2  5  1  1
  6  3  1  0
  7  6  1  1
  8  7  1  0
  9  8  2  0
 10  7  1  0
 11 10  1  0
 10 12  1  6
 13 11  1  0
 14  8  1  0
 15 14  1  0
 16 15  1  0
 17 16  2  0
 15 18  1  1
 19 18  1  0
 20 19  1  0
 21 19  1  0
 22 16  1  0
 23 22  1  0
 24 23  1  0
 25 24  2  0
 23 26  1  6
 27 24  1  0
 28 27  1  0
 29 28  1  0
 30 29  2  0
 28 31  1  6
 32 29  1  0
 33 32  1  0
 34 33  1  0
 35 34  2  0
 33 36  1  1
 37 36  1  0
 38 37  1  0
 39 37  1  0
 40 34  1  0
 41 40  1  0
 42 41  1  0
 43 42  2  0
 41 44  1  1
 45 44  1  0
 46 45  1  0
 47 45  1  0
 48 42  1  0
 49 48  1  0
 50 49  1  0
 51 50  2  0
 49 52  1  6
M  END
$$$$
5TN7
     RDKit          3D

 66 66  0  0  0  0  0  0  0  0999 V2000
   30.4570   16.4820    6.6280 N   0  0  0  0  0  0  0  0  0  0  0  0
   29.1630   17.0690    6.2990 C   0  0  2  0  0  0  0  0  0  0  0  0
   28.6910   16.6120    4.9220 C   0  0  0  0  0  0  0  0  0  0  0  0
   28.2720   17.4260    4.0980 O   0  0  0  0  0  0  0  0  0  0  0  0
   29.2410   18.5960    6.3510 C   0  0  0  0  0  0  0  0  0  0  0  0
   28.7580   15.2990    4.6830 N   0  0  0  0  0  0  0  0  0  0  0  0
   28.4100   14.7610    3.3700 C   0  0  2  0  0  0  0  0  0  0  0  0
   26.9370   15.0000    3.0620 C   0  0  0  0  0  0  0  0  0  0  0  0
   26.5790   15.3970    1.9460 O   0  0  0  0  0  0  0  0  0  0  0  0
   28.7710   13.2660    3.2920 C   0  0  2  0  0  0  0  0  0  0  0  0
   30.2720   13.0660    3.5060 C   0  0  0  0  0  0  0  0  0  0  0  0
   28.3460   12.6830    1.9540 C   0  0  0  0  0  0  0  0  0  0  0  0
   30.7180   11.6320    3.3640 C   0  0  0  0  0  0  0  0  0  0  0  0
   26.0600   14.7650    4.0430 N   0  0  0  0  0  0  0  0  0  0  0  0
   24.6330   14.9880    3.8310 C   0  0  2  0  0  0  0  0  0  0  0  0
   24.3410   16.4380    3.4690 C   0  0  0  0  0  0  0  0  0  0  0  0
   23.4250   16.7090    2.6820 O   0  0  0  0  0  0  0  0  0  0  0  0
   23.8460   14.5780    5.0750 C   0  0  0  0  0  0  0  0  0  0  0  0
   22.3240   14.7210    5.0350 C   0  0  0  0  0  0  0  0  0  0  0  0
   21.7420   13.9600    3.8590 C   0  0  0  0  0  0  0  0  0  0  0  0
   21.7100   14.2360    6.3360 C   0  0  0  0  0  0  0  0  0  0  0  0
   25.1070   17.3810    4.0250 N   0  0  0  0  0  0  0  0  0  0  0  0
   24.9500   18.7800    3.6440 C   0  0  2  0  0  0  0  0  0  0  0  0
   25.2330   18.9840    2.1630 C   0  0  0  0  0  0  0  0  0  0  0  0
   24.5000   19.7050    1.4770 O   0  0  0  0  0  0  0  0  0  0  0  0
   25.8800   19.6630    4.4730 C   0  0  0  0  0  0  0  0  0  0  0  0
   25.4660   19.8160    5.9010 C   0  0  0  0  0  0  0  0  0  0  0  0
   26.0610   19.1160    6.9270 N   0  0  0  0  0  0  0  0  0  0  0  0
   24.5230   20.5990    6.4760 C   0  0  0  0  0  0  0  0  0  0  0  0
   25.4990   19.4560    8.0730 C   0  0  0  0  0  0  0  0  0  0  0  0
   24.5620   20.3540    7.8260 N   0  0  0  0  0  0  0  0  0  0  0  0
   26.2930   18.3530    1.6540 N   0  0  0  0  0  0  0  0  0  0  0  0
   26.7150   18.5970    0.2790 C   0  0  2  0  0  0  0  0  0  0  0  0
   25.6700   18.1140   -0.7190 C   0  0  0  0  0  0  0  0  0  0  0  0
   25.3680   18.8100   -1.6960 O   0  0  0  0  0  0  0  0  0  0  0  0
   28.0620   17.9220    0.0180 C   0  0  0  0  0  0  0  0  0  0  0  0
   25.1010   16.9270   -0.4900 N   0  0  0  0  0  0  0  0  0  0  0  0
   24.1290   16.3890   -1.4360 C   0  0  2  0  0  0  0  0  0  0  0  0
   22.8370   17.1960   -1.4440 C   0  0  0  0  0  0  0  0  0  0  0  0
   22.1450   17.2420   -2.4680 O   0  0  0  0  0  0  0  0  0  0  0  0
   23.8360   14.9210   -1.1240 C   0  0  0  0  0  0  0  0  0  0  0  0
   24.8520   13.9040   -1.6540 C   0  0  0  0  0  0  0  0  0  0  0  0
   25.9840   13.6890   -0.6650 C   0  0  0  0  0  0  0  0  0  0  0  0
   24.1770   12.5850   -2.0010 C   0  0  0  0  0  0  0  0  0  0  0  0
   22.4940   17.8350   -0.3250 N   0  0  0  0  0  0  0  0  0  0  0  0
   21.3060   18.6770   -0.2760 C   0  0  2  0  0  0  0  0  0  0  0  0
   21.4980   20.0040   -0.9960 C   0  0  0  0  0  0  0  0  0  0  0  0
   20.5080   20.6150   -1.4150 O   0  0  0  0  0  0  0  0  0  0  0  0
   20.9000   18.9270    1.1770 C   0  0  0  0  0  0  0  0  0  0  0  0
   20.2530   17.7420    1.8960 C   0  0  0  0  0  0  0  0  0  0  0  0
   20.3470   17.9120    3.4010 C   0  0  0  0  0  0  0  0  0  0  0  0
   18.8030   17.5970    1.4680 C   0  0  0  0  0  0  0  0  0  0  0  0
   22.7410   20.4630   -1.1500 N   0  0  0  0  0  0  0  0  0  0  0  0
   22.9950   21.7020   -1.8770 C   0  0  2  0  0  0  0  0  0  0  0  0
   22.9100   21.4850   -3.3840 C   0  0  0  0  0  0  0  0  0  0  0  0
   22.2810   22.2740   -4.0980 O   0  0  0  0  0  0  0  0  0  0  0  0
   24.3690   22.2620   -1.5000 C   0  0  0  0  0  0  0  0  0  0  0  0
   24.5990   22.4440   -0.0070 C   0  0  0  0  0  0  0  0  0  0  0  0
   24.2550   23.8370    0.4840 C   0  0  0  0  0  0  0  0  0  0  0  0
   23.4120   24.5230   -0.0940 O   0  0  0  0  0  0  0  0  0  0  0  0
   24.9150   24.2650    1.5550 N   0  0  0  0  0  0  0  0  0  0  0  0
   23.5340   20.4210   -3.8790 N   0  0  0  0  0  0  0  0  0  0  0  0
   23.5750   20.1400   -5.3100 C   0  0  2  0  0  0  0  0  0  0  0  0
   22.2290   19.6420   -5.8280 C   0  0  0  0  0  0  0  0  0  0  0  0
   21.2830   19.4650   -5.0610 O   0  0  0  0  0  0  0  0  0  0  0  0
   24.6670   19.1130   -5.6170 C   0  0  0  0  0  0  0  0  0  0  0  0
  2  1  1  0
  3  2  1  0
  4  3  2  0
  2  5  1  6
  6  3  1  0
  7  6  1  1
  8  7  1  0
  9  8  2  0
 10  7  1  0
 11 10  1  0
 10 12  1  6
 13 11  1  0
 14  8  1  0
 15 14  1  0
 16 15  1  0
 17 16  2  0
 15 18  1  1
 19 18  1  0
 20 19  1  0
 21 19  1  0
 22 16  1  0
 23 22  1  0
 24 23  1  0
 25 24  2  0
 23 26  1  1
 27 26  1  0
 28 27  1  0
 29 27  2  0
 30 28  2  0
 31 30  1  0
 31 29  1  0
 32 24  1  0
 33 32  1  0
 34 33  1  0
 35 34  2  0
 33 36  1  6
 37 34  1  0
 38 37  1  0
 39 38  1  0
 40 39  2  0
 38 41  1  1
 42 41  1  0
 43 42  1  0
 44 42  1  0
 45 39  1  0
 46 45  1  0
 47 46  1  0
 48 47  2  0
 46 49  1  1
 50 49  1  0
 51 50  1  0
 52 50  1  0
 53 47  1  0
 54 53  1  0
 55 54  1  0
 56 55  2  0
 54 57  1  6
 58 57  1  0
 59 58  1  0
 60 59  2  0
 61 59  1  0
 62 55  1  0
 63 62  1  0
 64 63  1  0
 65 64  2  0
 63 66  1  1
M  END
$$$$
6VJD
     RDKit          3D

 31 35  0  0  0  0  0  0  0  0999 V2000
   14.9840   10.5620  -13.6210 C   0  0  1  0  0  0  0  0  0  0  0  0
   13.5750   10.3260  -13.2220 C   0  0  2  0  0  0  0  0  0  0  0  0
   12.9440    9.0370  -13.6500 C   0  0  0  0  0  0  0  0  0  0  0  0
   13.7260    7.7490  -13.4250 C   0  0  0  0  0  0  0  0  0  0  0  0
   15.2340    7.9510  -13.7510 C   0  0  0  0  0  0  0  0  0  0  0  0
   16.0390    6.7880  -13.9870 C   0  0  0  0  0  0  0  0  0  0  0  0
   17.3980    6.9560  -14.3080 C   0  0  0  0  0  0  0  0  0  0  0  0
   17.9940    8.2460  -14.3940 C   0  0  0  0  0  0  0  0  0  0  0  0
   17.1940    9.4040  -14.1570 C   0  0  0  0  0  0  0  0  0  0  0  0
   15.8170    9.2390  -13.8420 C   0  0  0  0  0  0  0  0  0  0  0  0
   12.6990   11.5660  -13.2620 C   0  0  0  0  0  0  0  0  0  0  0  0
   12.7070   12.4630  -12.2030 C   0  0  0  0  0  0  0  0  0  0  0  0
   11.9010   13.6060  -12.2630 C   0  0  0  0  0  0  0  0  0  0  0  0
   11.1100   13.8490  -13.3880 C   0  0  0  0  0  0  0  0  0  0  0  0
   11.1180   12.9550  -14.4510 C   0  0  0  0  0  0  0  0  0  0  0  0
   11.9160   11.8050  -14.3870 C   0  0  0  0  0  0  0  0  0  0  0  0
   15.0130   11.2800  -14.9780 C   0  0  0  0  0  0  0  0  0  0  0  0
   14.7210   10.5550  -16.1540 C   0  0  0  0  0  0  0  0  0  0  0  0
   14.7480   11.2030  -17.3790 C   0  0  0  0  0  0  0  0  0  0  0  0
   15.0620   12.5550  -17.4450 C   0  0  0  0  0  0  0  0  0  0  0  0
   15.3610   13.2960  -16.2770 C   0  0  0  0  0  0  0  0  0  0  0  0
   15.3330   12.6580  -15.0530 C   0  0  0  0  0  0  0  0  0  0  0  0
   16.1710   14.0830  -18.9970 C   0  0  0  0  0  0  0  0  0  0  0  0
   16.0680   14.4870  -20.4740 C   0  0  0  0  0  0  0  0  0  0  0  0
   16.4040   12.3650  -21.3050 C   0  0  0  0  0  0  0  0  0  0  0  0
   16.5340   11.9980  -22.5610 C   0  0  0  0  0  0  0  0  0  0  0  0
   18.1550    5.8100  -14.5310 O   0  0  0  0  0  0  0  0  0  0  0  0
   15.0770   13.2010  -18.7360 O   0  0  0  0  0  0  0  0  0  0  0  0
   16.8070   13.8750  -21.1830 N   0  0  0  0  0  0  0  0  0  0  0  0
   16.9070   13.1790  -23.3250 C   0  0  0  0  0  0  0  0  0  0  0  0
   16.7970   14.3650  -22.3390 C   0  0  0  0  0  0  0  0  0  0  0  0
  2  1  1  0
  3  2  1  0
  4  3  1  0
  5  4  1  0
  6  5  1  0
  7  6  1  0
  8  7  1  0
  9  8  1  0
 10  5  1  0
 10  1  1  0
 10  9  1  0
  2 11  1  6
 12 11  1  0
 13 12  1  0
 14 13  1  0
 15 14  1  0
 16 15  1  0
 16 11  1  0
  1 17  1  6
 18 17  1  0
 19 18  1  0
 20 19  1  0
 21 20  1  0
 22 21  1  0
 22 17  1  0
 24 23  1  0
 26 25  1  0
 27  7  1  0
 28 23  1  0
 28 20  1  0
 29 24  1  0
 29 25  1  0
 30 26  1  0
 31 30  1  0
 31 29  1  0
M  END
$$$$
5DKS
     RDKit          3D

 79 79  0  0  0  0  0  0  0  0999 V2000
   29.4110   17.5260    6.2480 N   0  0  0  0  0  0  0  0  0  0  0  0
   28.4940   16.4050    6.0840 C   0  0  2  0  0  0  0  0  0  0  0  0
   28.1020   16.2270    4.6200 C   0  0  0  0  0  0  0  0  0  0  0  0
   27.6570   17.1720    3.9690 O   0  0  0  0  0  0  0  0  0  0  0  0
   27.2500   16.6060    6.9490 C   0  0  0  0  0  0  0  0  0  0  0  0
   26.2890   15.4340    6.9370 C   0  0  0  0  0  0  0  0  0  0  0  0
   25.2020   15.6020    7.9850 C   0  0  0  0  0  0  0  0  0  0  0  0
   25.7870   15.6950    9.3860 C   0  0  0  0  0  0  0  0  0  0  0  0
   24.7220   15.7880   10.4240 N   0  0  0  0  0  0  0  0  0  0  0  0
   28.2730   15.0080    4.1150 N   0  0  0  0  0  0  0  0  0  0  0  0
   27.9800   14.6810    2.7210 C   0  0  2  0  0  0  0  0  0  0  0  0
   26.5330   14.9990    2.3640 C   0  0  0  0  0  0  0  0  0  0  0  0
   26.2340   15.4340    1.2520 O   0  0  0  0  0  0  0  0  0  0  0  0
   28.2380   13.1890    2.4380 C   0  0  2  0  0  0  0  0  0  0  0  0
   29.6500   12.7980    2.8750 C   0  0  0  0  0  0  0  0  0  0  0  0
   28.0270   12.8750    0.9660 C   0  0  0  0  0  0  0  0  0  0  0  0
   29.9240   11.3110    2.7960 C   0  0  0  0  0  0  0  0  0  0  0  0
   25.6460   14.7850    3.3280 N   0  0  0  0  0  0  0  0  0  0  0  0
   24.2180   14.9940    3.1410 C   0  0  2  0  0  0  0  0  0  0  0  0
   23.9040   16.4230    2.7000 C   0  0  0  0  0  0  0  0  0  0  0  0
   22.9490   16.6560    1.9590 O   0  0  0  0  0  0  0  0  0  0  0  0
   23.4740   14.6570    4.4340 C   0  0  0  0  0  0  0  0  0  0  0  0
   21.9690   14.4220    4.3360 C   0  0  0  0  0  0  0  0  0  0  0  0
   21.6810   13.3730    3.2860 C   0  0  0  0  0  0  0  0  0  0  0  0
   21.4190   13.9940    5.6850 C   0  0  0  0  0  0  0  0  0  0  0  0
   24.7150   17.3740    3.1540 N   0  0  0  0  0  0  0  0  0  0  0  0
   24.5520   18.7710    2.7700 C   0  0  2  0  0  0  0  0  0  0  0  0
   24.8540   18.9490    1.2890 C   0  0  0  0  0  0  0  0  0  0  0  0
   24.1430   19.6600    0.5790 O   0  0  0  0  0  0  0  0  0  0  0  0
   25.4770   19.6690    3.5950 C   0  0  0  0  0  0  0  0  0  0  0  0
   25.1400   19.7150    5.0530 C   0  0  0  0  0  0  0  0  0  0  0  0
   24.7890   18.5940    5.7740 N   0  0  0  0  0  0  0  0  0  0  0  0
   25.1110   20.7480    5.9280 C   0  0  0  0  0  0  0  0  0  0  0  0
   24.5520   18.9350    7.0280 C   0  0  0  0  0  0  0  0  0  0  0  0
   24.7400   20.2370    7.1470 N   0  0  0  0  0  0  0  0  0  0  0  0
   25.9180   18.2960    0.8370 N   0  0  0  0  0  0  0  0  0  0  0  0
   26.3420   18.3660   -0.5540 C   0  0  2  0  0  0  0  0  0  0  0  0
   25.2530   17.8430   -1.4820 C   0  0  0  0  0  0  0  0  0  0  0  0
   24.9430   18.4550   -2.5020 O   0  0  0  0  0  0  0  0  0  0  0  0
   27.6210   17.5540   -0.7540 C   0  0  0  0  0  0  0  0  0  0  0  0
   28.2210   17.6650   -2.1430 C   0  0  0  0  0  0  0  0  0  0  0  0
   29.3230   16.6380   -2.3440 C   0  0  0  0  0  0  0  0  0  0  0  0
   28.7870   15.3080   -2.6250 N   0  0  0  0  0  0  0  0  0  0  0  0
   29.4950   14.1860   -2.5510 C   0  0  0  0  0  0  0  0  0  0  0  0
   30.7700   14.2270   -2.1890 N   0  0  0  0  0  0  0  0  0  0  0  0
   28.9270   13.0210   -2.8280 N   0  0  0  0  0  0  0  0  0  0  0  0
   24.6700   16.7090   -1.1120 N   0  0  0  0  0  0  0  0  0  0  0  0
   23.6640   16.0580   -1.9420 C   0  0  2  0  0  0  0  0  0  0  0  0
   22.3120   16.7650   -1.8770 C   0  0  0  0  0  0  0  0  0  0  0  0
   21.4660   16.5790   -2.7490 O   0  0  0  0  0  0  0  0  0  0  0  0
   23.5260   14.5830   -1.5560 C   0  0  0  0  0  0  0  0  0  0  0  0
   24.7800   13.7410   -1.8050 C   0  0  0  0  0  0  0  0  0  0  0  0
   24.5730   12.2960   -1.4000 C   0  0  0  0  0  0  0  0  0  0  0  0
   25.1920   13.8290   -3.2630 C   0  0  0  0  0  0  0  0  0  0  0  0
   22.1170   17.5830   -0.8480 N   0  0  0  0  0  0  0  0  0  0  0  0
   20.8800   18.3470   -0.7090 C   0  0  2  0  0  0  0  0  0  0  0  0
   20.9610   19.7080   -1.3930 C   0  0  0  0  0  0  0  0  0  0  0  0
   19.9870   20.4600   -1.4080 O   0  0  0  0  0  0  0  0  0  0  0  0
   20.5060   18.5230    0.7640 C   0  0  0  0  0  0  0  0  0  0  0  0
   19.7840   17.3610    1.4470 C   0  0  0  0  0  0  0  0  0  0  0  0
   19.6150   17.6380    2.9270 C   0  0  0  0  0  0  0  0  0  0  0  0
   18.4370   17.1230    0.7970 C   0  0  0  0  0  0  0  0  0  0  0  0
   22.1210   20.0250   -1.9570 N   0  0  0  0  0  0  0  0  0  0  0  0
   22.3040   21.2990   -2.6440 C   0  0  2  0  0  0  0  0  0  0  0  0
   22.7010   21.1190   -4.1040 C   0  0  0  0  0  0  0  0  0  0  0  0
   22.6090   22.0530   -4.8990 O   0  0  0  0  0  0  0  0  0  0  0  0
   23.3410   22.1580   -1.9220 C   0  0  0  0  0  0  0  0  0  0  0  0
   22.8480   22.7490   -0.6170 C   0  0  0  0  0  0  0  0  0  0  0  0
   23.9020   23.5930    0.0670 C   0  0  0  0  0  0  0  0  0  0  0  0
   25.0290   23.1460    0.2800 O   0  0  0  0  0  0  0  0  0  0  0  0
   23.5430   24.8240    0.4080 N   0  0  0  0  0  0  0  0  0  0  0  0
   23.1420   19.9150   -4.4520 N   0  0  0  0  0  0  0  0  0  0  0  0
   23.5550   19.6230   -5.8190 C   0  0  2  0  0  0  0  0  0  0  0  0
   22.3630   19.3190   -6.7190 C   0  0  0  0  0  0  0  0  0  0  0  0
   22.1680   19.9720   -7.7450 O   0  0  0  0  0  0  0  0  0  0  0  0
   24.5530   18.4630   -5.8430 C   0  0  0  0  0  0  0  0  0  0  0  0
   25.9290   18.8670   -5.3510 C   0  0  0  0  0  0  0  0  0  0  0  0
   26.9070   18.1580   -5.6650 O   0  0  0  0  0  0  0  0  0  0  0  0
   26.0340   19.8980   -4.6550 O   0  0  0  0  0  0  0  0  0  0  0  0
  2  1  1  6
  3  2  1  0
  4  3  2  0
  5  2  1  0
  6  5  1  0
  7  6  1  0
  8  7  1  0
  9  8  1  0
 10  3  1  0
 11 10  1  1
 12 11  1  0
 13 12  2  0
 14 11  1  0
 15 14  1  0
 14 16  1  6
 17 15  1  0
 18 12  1  0
 19 18  1  0
 20 19  1  0
 21 20  2  0
 19 22  1  1
 23 22  1  0
 24 23  1  0
 25 23  1  0
 26 20  1  0
 27 26  1  0
 28 27  1  0
 29 28  2  0
 27 30  1  1
 31 30  1  0
 32 31  1  0
 33 31  2  0
 34 32  2  0
 35 34  1  0
 35 33  1  0
 36 28  1  0
 37 36  1  0
 38 37  1  0
 39 38  2  0
 37 40  1  1
 41 40  1  0
 42 41  1  0
 43 42  1  0
 44 43  1  0
 45 44  1  0
 46 44  2  0
 47 38  1  0
 48 47  1  0
 49 48  1  0
 50 49  2  0
 48 51  1  1
 52 51  1  0
 53 52  1  0
 54 52  1  0
 55 49  1  0
 56 55  1  0
 57 56  1  0
 58 57  2  0
 56 59  1  1
 60 59  1  0
 61 60  1  0
 62 60  1  0
 63 57  1  0
 64 63  1  0
 65 64  1  0
 66 65  2  0
 64 67  1  1
 68 67  1  0
 69 68  1  0
 70 69  2  0
 71 69  1  0
 72 65  1  0
 73 72  1  0
 74 73  1  0
 75 74  2  0
 73 76  1  1
 77 76  1  0
 78 77  2  0
 79 77  1  0
M  END
$$$$
5TN5
     RDKit          3D

 18 20  0  0  0  0  0  0  0  0999 V2000
  -16.4280  -25.0400   -2.1780 C   0  0  0  0  0  0  0  0  0  0  0  0
  -17.0710  -24.6650   -1.0580 C   0  0  0  0  0  0  0  0  0  0  0  0
  -18.3840  -24.9510   -0.9700 C   0  0  0  0  0  0  0  0  0  0  0  0
  -19.0180  -25.5800   -1.9790 C   0  0  0  0  0  0  0  0  0  0  0  0
  -18.3710  -25.9530   -3.1020 C   0  0  0  0  0  0  0  0  0  0  0  0
  -17.0590  -25.6710   -3.1790 C   0  0  0  0  0  0  0  0  0  0  0  0
  -16.4230  -24.0270   -0.0480 O   0  0  0  0  0  0  0  0  0  0  0  0
  -19.1130  -26.6710   -4.2280 C   0  0  2  0  0  0  0  0  0  0  0  0
  -18.2330  -27.0310   -5.4480 C   0  0  0  0  0  0  0  0  0  0  0  0
  -19.1130  -27.8190   -6.4260 C   0  0  1  0  0  0  0  0  0  0  0  0
  -20.3450  -27.0390   -6.9370 C   0  0  2  0  0  0  0  0  0  0  0  0
  -21.2120  -26.6460   -5.7240 C   0  0  0  0  0  0  0  0  0  0  0  0
  -20.3910  -25.9110   -4.6460 C   0  0  0  0  0  0  0  0  0  0  0  0
  -18.5000  -28.3830   -7.7140 C   0  0  0  0  0  0  0  0  0  0  0  0
  -19.7420  -28.7330   -8.5640 C   0  0  0  0  0  0  0  0  0  0  0  0
  -20.9490  -28.1310   -7.8300 C   0  0  2  0  0  0  0  0  0  0  0  0
  -21.9240  -27.6370   -8.7210 O   0  0  0  0  0  0  0  0  0  0  0  0
  -20.0150  -25.8030   -7.8110 C   0  0  0  0  0  0  0  0  0  0  0  0
  2  1  1  0
  3  2  1  0
  4  3  1  0
  5  4  1  0
  6  5  1  0
  6  1  1  0
  7  2  1  0
  8  5  1  1
  9  8  1  0
 10  9  1  6
 11 10  1  0
 12 11  1  0
 13 12  1  0
 13  8  1  0
 14 10  1  0
 15 14  1  0
 16 15  1  0
 16 11  1  0
 16 17  1  6
 11 18  1  6
M  END
$$$$
5TMO
     RDKit          3D

 30 33  0  0  0  0  0  0  0  0999 V2000
   23.9360    0.4350    4.4930 O   0  0  0  0  0  0  0  0  0  0  0  0
   22.8090   -0.3210    4.8610 C   0  0  0  0  0  0  0  0  0  0  0  0
   22.8970   -1.7010    4.9100 C   0  0  0  0  0  0  0  0  0  0  0  0
   21.7880   -2.4450    5.2690 C   0  0  0  0  0  0  0  0  0  0  0  0
   21.6150    0.3130    5.1710 C   0  0  0  0  0  0  0  0  0  0  0  0
   20.5050   -0.4320    5.5300 C   0  0  0  0  0  0  0  0  0  0  0  0
   20.5920   -1.8120    5.5680 C   0  0  0  0  0  0  0  0  0  0  0  0
   19.4150   -2.6650    5.9740 C   0  0  0  0  0  0  0  0  0  0  0  0
   19.5790   -3.3530    7.1590 C   0  0  0  0  0  0  0  0  0  0  0  0
   18.5820   -4.1680    7.6460 C   0  0  0  0  0  0  0  0  0  0  0  0
   18.8510   -5.0290    9.1650 S   0  0  2  0  0  0  0  0  0  0  0  0
   19.9560   -6.0340    8.9330 O   0  0  0  0  0  0  0  0  0  0  0  0
   21.0510   -6.1720    9.8110 C   0  0  0  0  0  0  0  0  0  0  0  0
   20.9650   -7.0520   10.8790 C   0  0  0  0  0  0  0  0  0  0  0  0
   22.0400   -7.2190   11.7350 C   0  0  0  0  0  0  0  0  0  0  0  0
   23.2140   -6.5110   11.5250 C   0  0  0  0  0  0  0  0  0  0  0  0
   23.3080   -5.6350   10.4540 C   0  0  0  0  0  0  0  0  0  0  0  0
   22.2290   -5.4710    9.5950 C   0  0  0  0  0  0  0  0  0  0  0  0
   17.5790   -5.7150    9.5860 O   0  0  0  0  0  0  0  0  0  0  0  0
   19.1180   -4.0880   10.3130 O   0  0  0  0  0  0  0  0  0  0  0  0
   17.3990   -4.3200    6.9490 C   0  0  0  0  0  0  0  0  0  0  0  0
   17.2290   -3.6340    5.7620 C   0  0  0  0  0  0  0  0  0  0  0  0
   18.2220   -2.8060    5.2610 C   0  0  0  0  0  0  0  0  0  0  0  0
   17.9020   -2.1250    3.9490 C   0  0  0  0  0  0  0  0  0  0  0  0
   16.5950   -1.7180    3.7430 C   0  0  0  0  0  0  0  0  0  0  0  0
   16.2370   -1.1070    2.5590 C   0  0  0  0  0  0  0  0  0  0  0  0
   17.1850   -0.9100    1.5690 C   0  0  0  0  0  0  0  0  0  0  0  0
   16.7980   -0.2880    0.3730 O   0  0  0  0  0  0  0  0  0  0  0  0
   18.4940   -1.3240    1.7590 C   0  0  0  0  0  0  0  0  0  0  0  0
   18.8480   -1.9420    2.9480 C   0  0  0  0  0  0  0  0  0  0  0  0
  2  1  1  0
  3  2  1  0
  4  3  1  0
  5  2  1  0
  6  5  1  0
  7  4  1  0
  7  6  1  0
  8  7  1  0
  9  8  1  0
 10  9  1  0
 11 10  1  0
 12 11  1  0
 13 12  1  0
 14 13  1  0
 15 14  1  0
 16 15  1  0
 17 16  1  0
 18 13  1  0
 18 17  1  0
 11 19  1  1
 20 11  1  0
 21 10  1  0
 22 21  1  0
 23 22  1  0
 23  8  1  0
 24 23  1  0
 25 24  1  0
 26 25  1  0
 27 26  1  0
 28 27  1  0
 29 27  1  0
 30 29  1  0
 30 24  1  0
M  END
$$$$
7UJ8
     RDKit          3D

 75 74  0  0  0  0  0  0  0  0999 V2000
   16.7670  -36.4060   21.6820 N   0  0  0  0  0  0  0  0  0  0  0  0
   15.4440  -36.0560   22.1850 C   0  0  2  0  0  0  0  0  0  0  0  0
   15.3860  -36.1860   23.7030 C   0  0  0  0  0  0  0  0  0  0  0  0
   16.4180  -36.1420   24.3740 O   0  0  0  0  0  0  0  0  0  0  0  0
   14.3750  -36.9390   21.5360 C   0  0  0  0  0  0  0  0  0  0  0  0
   14.1660  -36.3660   24.2080 N   0  0  0  0  0  0  0  0  0  0  0  0
   13.9010  -36.5920   25.6540 C   0  0  2  0  0  0  0  0  0  0  0  0
   14.7470  -37.7860   26.0950 C   0  0  0  0  0  0  0  0  0  0  0  0
   15.0490  -37.9040   27.2810 O   0  0  0  0  0  0  0  0  0  0  0  0
   12.4490  -36.8730   25.8710 C   0  0  0  0  0  0  0  0  0  0  0  0
   12.0760  -38.0170   25.1190 O   0  0  0  0  0  0  0  0  0  0  0  0
   15.0030  -38.6810   25.1430 N   0  0  0  0  0  0  0  0  0  0  0  0
   15.9000  -39.8140   25.2700 C   0  0  2  0  0  0  0  0  0  0  0  0
   17.3350  -39.4180   25.5700 C   0  0  0  0  0  0  0  0  0  0  0  0
   17.7890  -39.4200   26.7150 O   0  0  0  0  0  0  0  0  0  0  0  0
   15.8950  -40.6150   23.9650 C   0  0  0  0  0  0  0  0  0  0  0  0
   16.6090  -41.9370   24.0830 C   0  0  0  0  0  0  0  0  0  0  0  0
   17.5550  -42.0360   24.8910 O   0  0  0  0  0  0  0  0  0  0  0  0
   16.2260  -42.8720   23.3440 O   0  0  0  0  0  0  0  0  0  0  0  0
   18.0270  -39.0920   24.4840 N   0  0  0  0  0  0  0  0  0  0  0  0
   19.4780  -39.0050   24.4260 C   0  0  2  0  0  0  0  0  0  0  0  0
   20.0590  -38.0190   25.4290 C   0  0  0  0  0  0  0  0  0  0  0  0
   21.1470  -38.2330   25.9500 O   0  0  0  0  0  0  0  0  0  0  0  0
   19.8870  -38.6310   23.0000 C   0  0  0  0  0  0  0  0  0  0  0  0
   21.3000  -38.8870   22.4840 C   0  0  0  0  0  0  0  0  0  0  0  0
   21.5670  -40.3750   22.4350 C   0  0  0  0  0  0  0  0  0  0  0  0
   21.4170  -38.2970   21.0910 C   0  0  0  0  0  0  0  0  0  0  0  0
   19.3240  -36.9470   25.7010 N   0  0  0  0  0  0  0  0  0  0  0  0
   19.7520  -35.9630   26.6880 C   0  0  2  0  0  0  0  0  0  0  0  0
   19.9310  -36.6120   28.0590 C   0  0  0  0  0  0  0  0  0  0  0  0
   20.9800  -36.4700   28.6810 O   0  0  0  0  0  0  0  0  0  0  0  0
   18.7530  -34.8070   26.7620 C   0  0  0  0  0  0  0  0  0  0  0  0
   18.7520  -33.8880   25.5380 C   0  0  0  0  0  0  0  0  0  0  0  0
   17.4150  -33.1810   25.3940 C   0  0  0  0  0  0  0  0  0  0  0  0
   19.8910  -32.8820   25.6210 C   0  0  0  0  0  0  0  0  0  0  0  0
   18.9170  -37.3440   28.5140 N   0  0  0  0  0  0  0  0  0  0  0  0
   18.9930  -38.0440   29.7950 C   0  0  2  0  0  0  0  0  0  0  0  0
   20.1750  -39.0140   29.8310 C   0  0  0  0  0  0  0  0  0  0  0  0
   20.7750  -39.2350   30.8830 O   0  0  0  0  0  0  0  0  0  0  0  0
   17.6890  -38.7910   30.0780 C   0  0  0  0  0  0  0  0  0  0  0  0
   20.5030  -39.5840   28.6740 N   0  0  0  0  0  0  0  0  0  0  0  0
   21.6850  -40.4290   28.5390 C   0  0  2  0  0  0  0  0  0  0  0  0
   22.9640  -39.6380   28.8230 C   0  0  0  0  0  0  0  0  0  0  0  0
   23.7640  -40.0210   29.6760 O   0  0  0  0  0  0  0  0  0  0  0  0
   21.7600  -41.0380   27.1360 C   0  0  0  0  0  0  0  0  0  0  0  0
   20.6860  -42.0610   26.8050 C   0  0  0  0  0  0  0  0  0  0  0  0
   20.8780  -42.6460   25.4190 C   0  0  0  0  0  0  0  0  0  0  0  0
   22.0440  -42.7520   24.9840 O   0  0  0  0  0  0  0  0  0  0  0  0
   19.8720  -42.9890   24.7620 O   0  0  0  0  0  0  0  0  0  0  0  0
   23.1450  -38.5340   28.1010 N   0  0  0  0  0  0  0  0  0  0  0  0
   24.3400  -37.6980   28.2170 C   0  0  2  0  0  0  0  0  0  0  0  0
   24.5490  -37.0850   29.6000 C   0  0  0  0  0  0  0  0  0  0  0  0
   25.6860  -36.8780   30.0210 O   0  0  0  0  0  0  0  0  0  0  0  0
   24.2950  -36.5730   27.1740 C   0  0  0  0  0  0  0  0  0  0  0  0
   23.9200  -37.0260   25.7760 C   0  0  0  0  0  0  0  0  0  0  0  0
   24.1340  -35.7410   24.5280 S   0  0  0  0  0  0  0  0  0  0  0  0
   24.2710  -36.7190   23.0360 C   0  0  0  0  0  0  0  0  0  0  0  0
   23.4610  -36.7910   30.3030 N   0  0  0  0  0  0  0  0  0  0  0  0
   23.5660  -36.0830   31.5740 C   0  0  2  0  0  0  0  0  0  0  0  0
   23.7800  -37.0260   32.7520 C   0  0  0  0  0  0  0  0  0  0  0  0
   23.7920  -36.5980   33.9060 O   0  0  0  0  0  0  0  0  0  0  0  0
   22.3230  -35.2230   31.8090 C   0  0  0  0  0  0  0  0  0  0  0  0
   22.4250  -33.8190   31.2040 C   0  0  0  0  0  0  0  0  0  0  0  0
   21.7730  -33.7540   29.8380 C   0  0  0  0  0  0  0  0  0  0  0  0
   21.8300  -32.7790   32.1250 C   0  0  0  0  0  0  0  0  0  0  0  0
   23.9670  -38.3070   32.4530 N   0  0  0  0  0  0  0  0  0  0  0  0
   24.2120  -39.3050   33.4850 C   0  0  2  0  0  0  0  0  0  0  0  0
   25.6680  -39.2880   33.9460 C   0  0  0  0  0  0  0  0  0  0  0  0
   26.0400  -39.9920   34.8870 O   0  0  0  0  0  0  0  0  0  0  0  0
   23.8420  -40.6980   32.9730 C   0  0  0  0  0  0  0  0  0  0  0  0
   26.4780  -38.4690   33.2810 N   0  0  0  0  0  0  0  0  0  0  0  0
   27.9220  -38.4300   33.5070 C   0  0  2  0  0  0  0  0  0  0  0  0
   28.2940  -37.9980   34.9250 C   0  0  0  0  0  0  0  0  0  0  0  0
   27.4290  -37.6640   35.7340 O   0  0  0  0  0  0  0  0  0  0  0  0
   28.5800  -37.5040   32.4920 C   0  0  0  0  0  0  0  0  0  0  0  0
  2  1  1  0
  3  2  1  0
  4  3  2  0
  2  5  1  6
  6  3  1  0
  7  6  1  0
  8  7  1  0
  9  8  2  0
  7 10  1  6
 11 10  1  0
 12  8  1  0
 13 12  1  0
 14 13  1  0
 15 14  2  0
 13 16  1  6
 17 16  1  0
 18 17  2  0
 19 17  1  0
 20 14  1  0
 21 20  1  0
 22 21  1  0
 23 22  2  0
 21 24  1  6
 25 24  1  0
 26 25  1  0
 27 25  1  0
 28 22  1  0
 29 28  1  0
 30 29  1  0
 31 30  2  0
 29 32  1  1
 33 32  1  0
 34 33  1  0
 35 33  1  0
 36 30  1  0
 37 36  1  0
 38 37  1  0
 39 38  2  0
 37 40  1  6
 41 38  1  0
 42 41  1  0
 43 42  1  0
 44 43  2  0
 42 45  1  6
 46 45  1  0
 47 46  1  0
 48 47  2  0
 49 47  1  0
 50 43  1  0
 51 50  1  0
 52 51  1  0
 53 52  2  0
 51 54  1  6
 55 54  1  0
 56 55  1  0
 57 56  1  0
 58 52  1  0
 59 58  1  0
 60 59  1  0
 61 60  2  0
 59 62  1  1
 63 62  1  0
 64 63  1  0
 65 63  1  0
 66 60  1  0
 67 66  1  0
 68 67  1  0
 69 68  2  0
 67 70  1  6
 71 68  1  0
 72 71  1  0
 73 72  1  0
 74 73  2  0
 72 75  1  6
M  END
$$$$
7UJY
     RDKit          3D

 32 36  0  0  0  0  0  0  0  0999 V2000
  -30.5330   -3.4160   21.5720 C   0  0  0  0  0  0  0  0  0  0  0  0
  -31.9580   -3.1290   21.9700 C   0  0  2  0  0  0  0  0  0  0  0  0
  -31.8990   -2.7560   23.3980 C   0  0  0  0  0  0  0  0  0  0  0  0
  -32.5150   -3.8540   24.1010 C   0  0  0  0  0  0  0  0  0  0  0  0
  -33.3880   -4.5140   23.0680 C   0  0  0  0  0  0  0  0  0  0  0  0
  -32.7290   -4.2930   21.8150 N   0  0  0  0  0  0  0  0  0  0  0  0
  -33.7580   -4.1310   20.8710 C   0  0  0  0  0  0  0  0  0  0  0  0
  -33.3050   -4.0260   19.3950 C   0  0  0  0  0  0  0  0  0  0  0  0
  -32.7500   -2.7790   19.1420 O   0  0  0  0  0  0  0  0  0  0  0  0
  -32.3430   -2.5030   17.7910 C   0  0  1  0  0  0  0  0  0  0  0  0
  -31.3060   -1.4370   17.5580 C   0  0  0  0  0  0  0  0  0  0  0  0
  -30.8020   -1.1340   16.3540 C   0  0  0  0  0  0  0  0  0  0  0  0
  -32.7840   -3.1710   16.7240 C   0  0  0  0  0  0  0  0  0  0  0  0
  -32.2720   -2.7990   15.3350 C   0  0  0  0  0  0  0  0  0  0  0  0
  -31.3460   -1.8410   15.1490 C   0  0  2  0  0  0  0  0  0  0  0  0
  -30.7410   -1.4570   13.8430 C   0  0  2  0  0  0  0  0  0  0  0  0
  -29.2740   -1.4560   14.0740 C   0  0  1  0  0  0  0  0  0  0  0  0
  -28.6210   -2.7680   14.2550 C   0  0  0  0  0  0  0  0  0  0  0  0
  -27.3030   -2.8320   14.5470 C   0  0  0  0  0  0  0  0  0  0  0  0
  -26.4580   -1.7270   14.5830 C   0  0  1  0  0  0  0  0  0  0  0  0
  -25.1150   -1.7650   14.7190 O   0  0  0  0  0  0  0  0  0  0  0  0
  -27.0350   -0.5350   14.1090 C   0  0  0  0  0  0  0  0  0  0  0  0
  -28.5010   -0.4040   14.0360 C   0  0  1  0  0  0  0  0  0  0  0  0
  -29.0130    0.9780   13.7010 C   0  0  0  0  0  0  0  0  0  0  0  0
  -30.4980    1.0880   13.7420 C   0  0  0  0  0  0  0  0  0  0  0  0
  -31.2340   -0.1480   13.2960 C   0  0  2  0  0  0  0  0  0  0  0  0
  -32.7230    0.0480   13.4840 C   0  0  0  0  0  0  0  0  0  0  0  0
  -33.2190    0.7230   14.5410 C   0  0  0  0  0  0  0  0  0  0  0  0
  -34.5780    0.8700   14.6660 C   0  0  0  0  0  0  0  0  0  0  0  0
  -35.4440    0.3880   13.7170 C   0  0  0  0  0  0  0  0  0  0  0  0
  -34.9470   -0.2910   12.6540 C   0  0  0  0  0  0  0  0  0  0  0  0
  -33.5890   -0.4290   12.5410 C   0  0  0  0  0  0  0  0  0  0  0  0
  2  1  1  1
  3  2  1  0
  4  3  1  0
  5  4  1  0
  6  5  1  0
  6  2  1  0
  7  6  1  0
  8  7  1  0
  9  8  1  0
 10  9  1  1
 11 10  1  0
 12 11  1  0
 13 10  1  0
 14 13  1  0
 15 14  1  1
 15 12  1  0
 16 15  1  1
 17 16  1  0
 17 18  1  6
 19 18  1  0
 20 19  1  0
 20 21  1  6
 22 20  1  0
 23 17  1  0
 23 22  1  6
 24 23  1  0
 25 24  1  0
 26 25  1  0
 26 16  1  0
 26 27  1  1
 28 27  1  0
 29 28  1  0
 30 29  1  0
 31 30  1  0
 32 31  1  0
 32 27  1  0
M  END
$$$$
5TM9
     RDKit          3D

 66 66  0  0  0  0  0  0  0  0999 V2000
   15.1950   18.6670    9.0510 N   0  0  0  0  0  0  0  0  0  0  0  0
   15.3580   17.2190    8.9820 C   0  0  2  0  0  0  0  0  0  0  0  0
   14.1310   16.4960    9.5240 C   0  0  0  0  0  0  0  0  0  0  0  0
   13.5450   16.9130   10.5230 O   0  0  0  0  0  0  0  0  0  0  0  0
   16.6050   16.7850    9.7580 C   0  0  0  0  0  0  0  0  0  0  0  0
   13.7390   15.4110    8.8540 N   0  0  0  0  0  0  0  0  0  0  0  0
   12.6480   14.5910    9.3680 C   0  0  2  0  0  0  0  0  0  0  0  0
   13.0570   13.9250   10.6720 C   0  0  0  0  0  0  0  0  0  0  0  0
   12.2180   13.7010   11.5530 O   0  0  0  0  0  0  0  0  0  0  0  0
   12.2120   13.5550    8.3160 C   0  0  0  0  0  0  0  0  0  0  0  0
   14.3440   13.5990   10.8200 N   0  0  0  0  0  0  0  0  0  0  0  0
   14.8300   13.0640   12.0850 C   0  0  2  0  0  0  0  0  0  0  0  0
   14.6950   14.0900   13.2040 C   0  0  0  0  0  0  0  0  0  0  0  0
   14.5010   13.7200   14.3680 O   0  0  0  0  0  0  0  0  0  0  0  0
   16.2840   12.6080   11.9300 C   0  0  0  0  0  0  0  0  0  0  0  0
   16.8900   11.7310   13.0280 C   0  0  0  0  0  0  0  0  0  0  0  0
   15.9530   10.5940   13.3810 C   0  0  0  0  0  0  0  0  0  0  0  0
   18.2350   11.1860   12.5740 C   0  0  0  0  0  0  0  0  0  0  0  0
   14.7900   15.3800   12.8730 N   0  0  0  0  0  0  0  0  0  0  0  0
   14.5060   16.4290   13.8450 C   0  0  2  0  0  0  0  0  0  0  0  0
   13.0360   16.4090   14.2460 C   0  0  0  0  0  0  0  0  0  0  0  0
   12.7000   16.3510   15.4330 O   0  0  0  0  0  0  0  0  0  0  0  0
   14.8810   17.7960   13.2670 C   0  0  0  0  0  0  0  0  0  0  0  0
   16.2720   18.2400   13.5940 C   0  0  0  0  0  0  0  0  0  0  0  0
   17.3020   18.2030   12.6790 N   0  0  0  0  0  0  0  0  0  0  0  0
   16.7980   18.7540   14.7310 C   0  0  0  0  0  0  0  0  0  0  0  0
   18.4040   18.6650   13.2410 C   0  0  0  0  0  0  0  0  0  0  0  0
   18.1260   19.0060   14.4870 N   0  0  0  0  0  0  0  0  0  0  0  0
   12.1430   16.4630   13.2540 N   0  0  0  0  0  0  0  0  0  0  0  0
   10.7140   16.5670   13.5360 C   0  0  2  0  0  0  0  0  0  0  0  0
   10.2020   15.3450   14.2870 C   0  0  0  0  0  0  0  0  0  0  0  0
    9.4270   15.4750   15.2420 O   0  0  0  0  0  0  0  0  0  0  0  0
    9.9350   16.7550   12.2320 C   0  0  0  0  0  0  0  0  0  0  0  0
   10.6250   14.1480   13.8730 N   0  0  0  0  0  0  0  0  0  0  0  0
   10.1650   12.9350   14.5410 C   0  0  2  0  0  0  0  0  0  0  0  0
   10.6790   12.8510   15.9730 C   0  0  0  0  0  0  0  0  0  0  0  0
   10.0190   12.2550   16.8320 O   0  0  0  0  0  0  0  0  0  0  0  0
   10.5880   11.7040   13.7380 C   0  0  0  0  0  0  0  0  0  0  0  0
    9.9270   11.5840   12.3610 C   0  0  0  0  0  0  0  0  0  0  0  0
   10.5010   10.4240   11.5620 C   0  0  0  0  0  0  0  0  0  0  0  0
    8.4180   11.4450   12.5020 C   0  0  0  0  0  0  0  0  0  0  0  0
   11.8430   13.4390   16.2530 N   0  0  0  0  0  0  0  0  0  0  0  0
   12.3460   13.4830   17.6190 C   0  0  2  0  0  0  0  0  0  0  0  0
   11.6790   14.5690   18.4520 C   0  0  0  0  0  0  0  0  0  0  0  0
   11.7110   14.4920   19.6850 O   0  0  0  0  0  0  0  0  0  0  0  0
   13.8630   13.6830   17.6170 C   0  0  0  0  0  0  0  0  0  0  0  0
   14.6890   12.4230   17.3460 C   0  0  0  0  0  0  0  0  0  0  0  0
   16.1430   12.7770   17.1000 C   0  0  0  0  0  0  0  0  0  0  0  0
   14.5670   11.4470   18.5050 C   0  0  0  0  0  0  0  0  0  0  0  0
   11.0800   15.5740   17.8110 N   0  0  0  0  0  0  0  0  0  0  0  0
   10.2950   16.5770   18.5180 C   0  0  2  0  0  0  0  0  0  0  0  0
    8.8350   16.1780   18.6770 C   0  0  0  0  0  0  0  0  0  0  0  0
    8.1750   16.6500   19.6100 O   0  0  0  0  0  0  0  0  0  0  0  0
   10.3690   17.9240   17.7920 C   0  0  0  0  0  0  0  0  0  0  0  0
   11.6880   18.6620   17.9600 C   0  0  0  0  0  0  0  0  0  0  0  0
   11.7470   19.9370   17.1400 C   0  0  0  0  0  0  0  0  0  0  0  0
   11.0650   20.0650   16.1230 O   0  0  0  0  0  0  0  0  0  0  0  0
   12.5620   20.8890   17.5810 N   0  0  0  0  0  0  0  0  0  0  0  0
    8.3200   15.3280   17.7940 N   0  0  0  0  0  0  0  0  0  0  0  0
    6.9280   14.9030   17.8510 C   0  0  2  0  0  0  0  0  0  0  0  0
    6.7940   13.5600   18.5620 C   0  0  0  0  0  0  0  0  0  0  0  0
    5.7600   12.8990   18.4750 O   0  0  0  0  0  0  0  0  0  0  0  0
    6.3380   14.8140   16.4410 C   0  0  0  0  0  0  0  0  0  0  0  0
    6.5030   16.1030   15.6580 C   0  0  0  0  0  0  0  0  0  0  0  0
    6.5570   17.1800   16.2880 O   0  0  0  0  0  0  0  0  0  0  0  0
    6.5840   16.0390   14.4130 O   0  0  0  0  0  0  0  0  0  0  0  0
  2  1  1  0
  3  2  1  0
  4  3  2  0
  2  5  1  1
  6  3  1  0
  7  6  1  0
  8  7  1  0
  9  8  2  0
  7 10  1  6
 11  8  1  0
 12 11  1  0
 13 12  1  0
 14 13  2  0
 12 15  1  6
 16 15  1  0
 17 16  1  0
 18 16  1  0
 19 13  1  0
 20 19  1  0
 21 20  1  0
 22 21  2  0
 20 23  1  6
 24 23  1  0
 25 24  1  0
 26 24  2  0
 27 25  2  0
 28 27  1  0
 28 26  1  0
 29 21  1  0
 30 29  1  0
 31 30  1  0
 32 31  2  0
 30 33  1  6
 34 31  1  0
 35 34  1  0
 36 35  1  0
 37 36  2  0
 35 38  1  6
 39 38  1  0
 40 39  1  0
 41 39  1  0
 42 36  1  0
 43 42  1  0
 44 43  1  0
 45 44  2  0
 43 46  1  6
 47 46  1  0
 48 47  1  0
 49 47  1  0
 50 44  1  0
 51 50  1  0
 52 51  1  0
 53 52  2  0
 51 54  1  6
 55 54  1  0
 56 55  1  0
 57 56  2  0
 58 56  1  0
 59 52  1  0
 60 59  1  0
 61 60  1  0
 62 61  2  0
 60 63  1  6
 64 63  1  0
 65 64  2  0
 66 64  1  0
M  END
$$$$
8BZT
     RDKit          3D

 76 77  0  0  0  0  0  0  0  0999 V2000
   12.8160    7.5810   14.9250 N   0  0  0  0  0  0  0  0  0  0  0  0
   13.6630    8.7710   14.9060 C   0  0  2  0  0  0  0  0  0  0  0  0
   12.9420    9.9720   14.2950 C   0  0  0  0  0  0  0  0  0  0  0  0
   12.0700    9.8150   13.4370 O   0  0  0  0  0  0  0  0  0  0  0  0
   14.9660    8.4810   14.1420 C   0  0  0  0  0  0  0  0  0  0  0  0
   14.7640    8.0350   12.7080 C   0  0  0  0  0  0  0  0  0  0  0  0
   14.4530    8.9500   11.7090 C   0  0  0  0  0  0  0  0  0  0  0  0
   14.8920    6.6960   12.3590 C   0  0  0  0  0  0  0  0  0  0  0  0
   14.2690    8.5330   10.4030 C   0  0  0  0  0  0  0  0  0  0  0  0
   14.7080    6.2790   11.0500 C   0  0  0  0  0  0  0  0  0  0  0  0
   14.4020    7.1950   10.0740 C   0  0  0  0  0  0  0  0  0  0  0  0
   13.8900    9.0080   15.8190 H   0  0  0  0  0  0  0  0  0  0  0  0
   15.5010    9.2900   14.1250 H   0  0  0  0  0  0  0  0  0  0  0  0
   15.4450    7.7760   14.6040 H   0  0  0  0  0  0  0  0  0  0  0  0
   14.3680    9.8510   11.9210 H   0  0  0  0  0  0  0  0  0  0  0  0
   15.1060    6.0710   13.0140 H   0  0  0  0  0  0  0  0  0  0  0  0
   14.0550    9.1540    9.7440 H   0  0  0  0  0  0  0  0  0  0  0  0
   14.7910    5.3780   10.8330 H   0  0  0  0  0  0  0  0  0  0  0  0
   14.2850    6.9170    9.1940 H   0  0  0  0  0  0  0  0  0  0  0  0
   13.3060   11.1740   14.7330 N   0  0  0  0  0  0  0  0  0  0  0  0
   12.7060   12.3800   14.1610 C   0  0  2  0  0  0  0  0  0  0  0  0
   13.3210   12.6780   12.8030 C   0  0  0  0  0  0  0  0  0  0  0  0
   14.3890   12.1760   12.4510 O   0  0  0  0  0  0  0  0  0  0  0  0
   13.0510   13.4670   15.1870 C   0  0  0  0  0  0  0  0  0  0  0  0
   14.3600   13.0090   15.7470 C   0  0  0  0  0  0  0  0  0  0  0  0
   14.3250   11.4960   15.7520 C   0  0  0  0  0  0  0  0  0  0  0  0
   11.7410   12.3120   14.0870 H   0  0  0  0  0  0  0  0  0  0  0  0
   13.1360   14.3280   14.7500 H   0  0  0  0  0  0  0  0  0  0  0  0
   12.3690   13.5100   15.8750 H   0  0  0  0  0  0  0  0  0  0  0  0
   15.0830   13.3300   15.1850 H   0  0  0  0  0  0  0  0  0  0  0  0
   14.4640   13.3500   16.6480 H   0  0  0  0  0  0  0  0  0  0  0  0
   15.1890   11.1300   15.5050 H   0  0  0  0  0  0  0  0  0  0  0  0
   14.0600   11.1610   16.6230 H   0  0  0  0  0  0  0  0  0  0  0  0
   12.6290   13.5210   12.0390 N   0  0  0  0  0  0  0  0  0  0  0  0
   13.0430   13.7990   10.6830 C   0  0  2  0  0  0  0  0  0  0  0  0
   14.0940   14.8890   10.5710 C   0  0  0  0  0  0  0  0  0  0  0  0
   13.9850   15.9130   11.2270 O   0  0  0  0  0  0  0  0  0  0  0  0
   11.8300   14.1800    9.8470 C   0  0  0  0  0  0  0  0  0  0  0  0
   11.9200   13.9390   12.2890 H   0  0  0  0  0  0  0  0  0  0  0  0
   13.4510   12.9890   10.3380 H   0  0  0  0  0  0  0  0  0  0  0  0
   11.2000   13.4420    9.8500 H   0  0  0  0  0  0  0  0  0  0  0  0
   11.4160   14.9690   10.2320 H   0  0  0  0  0  0  0  0  0  0  0  0
   12.1170   14.3670    8.9400 H   0  0  0  0  0  0  0  0  0  0  0  0
   15.0950   14.6670    9.7130 N   0  0  0  0  0  0  0  0  0  0  0  0
   16.1340   15.6530    9.4020 C   0  0  1  0  0  0  0  0  0  0  0  0
   17.4890   15.3030   10.1150 C   0  0  1  0  0  0  0  0  0  0  0  0
   17.2730   15.4780   11.6160 C   0  0  2  0  0  0  0  0  0  0  0  0
   17.7390   13.9760    9.6670 O   0  0  0  0  0  0  0  0  0  0  0  0
   19.1950   13.4020   10.0590 P   0  0  0  0  0  0  0  0  0  0  0  0
   19.2670   12.0890    9.1580 O   0  0  0  0  0  0  0  0  0  0  0  0
   19.2250   13.0410   11.5100 O   0  0  0  0  0  0  0  0  0  0  0  0
   20.2990   14.4690    9.6540 O   0  0  0  0  0  0  0  0  0  0  0  0
   16.2770   15.6640    7.8810 C   0  0  0  0  0  0  0  0  0  0  0  0
   15.7850   14.7590    7.1730 O   0  0  0  0  0  0  0  0  0  0  0  0
   15.9020   16.5460    9.7330 H   0  0  0  0  0  0  0  0  0  0  0  0
   18.3550   15.9250    9.8900 H   0  0  0  0  0  0  0  0  0  0  0  0
   16.5780   14.7180   11.9740 H   0  0  0  0  0  0  0  0  0  0  0  0
   16.8600   16.4670   11.8110 H   0  0  0  0  0  0  0  0  0  0  0  0
   18.2250   15.3730   12.1350 H   0  0  0  0  0  0  0  0  0  0  0  0
   16.8980   16.7160    7.3630 N   0  0  0  0  0  0  0  0  0  0  0  0
   17.0450   16.8850    5.9300 C   0  0  2  0  0  0  0  0  0  0  0  0
   18.4640   17.2660    5.5830 C   0  0  0  0  0  0  0  0  0  0  0  0
   19.2320   17.7040    6.4550 O   0  0  0  0  0  0  0  0  0  0  0  0
   16.0050   17.9250    5.4220 C   0  0  0  0  0  0  0  0  0  0  0  0
   16.4690   19.3610    5.7750 C   0  0  0  0  0  0  0  0  0  0  0  0
   15.7410   17.7430    3.9640 C   0  0  0  0  0  0  0  0  0  0  0  0
   18.8920   17.1300    4.4130 O   0  0  0  0  0  0  0  0  0  0  0  0
   17.2450   17.3500    7.8280 H   0  0  0  0  0  0  0  0  0  0  0  0
   16.8750   16.0470    5.4730 H   0  0  0  0  0  0  0  0  0  0  0  0
   15.1560   17.7850    5.8690 H   0  0  0  0  0  0  0  0  0  0  0  0
   17.2490   19.5810    5.2430 H   0  0  0  0  0  0  0  0  0  0  0  0
   15.7500   19.9820    5.5800 H   0  0  0  0  0  0  0  0  0  0  0  0
   16.6910   19.3970    6.7190 H   0  0  0  0  0  0  0  0  0  0  0  0
   14.9970   18.3090    3.7050 H   0  0  0  0  0  0  0  0  0  0  0  0
   16.5350   17.9920    3.4660 H   0  0  0  0  0  0  0  0  0  0  0  0
   15.5230   16.8130    3.7970 H   0  0  0  0  0  0  0  0  0  0  0  0
  2  1  1  0
  3  2  1  0
  4  3  2  0
  5  2  1  0
  6  5  1  0
  7  6  2  0
  8  6  1  0
  9  7  1  0
 10  8  2  0
 11  9  2  0
 11 10  1  0
  2 12  1  1
 13  5  1  0
 14  5  1  0
 15  7  1  0
 16  8  1  0
 17  9  1  0
 18 10  1  0
 19 11  1  0
 20  3  1  0
 21 20  1  0
 22 21  1  0
 23 22  2  0
 24 21  1  0
 25 24  1  0
 26 25  1  0
 26 20  1  0
 21 27  1  6
 28 24  1  0
 29 24  1  0
 30 25  1  0
 31 25  1  0
 32 26  1  0
 33 26  1  0
 34 22  1  0
 35 34  1  0
 36 35  1  0
 37 36  2  0
 38 35  1  0
 39 34  1  0
 35 40  1  6
 41 38  1  0
 42 38  1  0
 43 38  1  0
 44 36  1  0
 45 44  1  0
 46 45  1  0
 47 46  1  0
 48 46  1  0
 49 48  1  0
 50 49  1  0
 51 49  1  0
 52 49  1  0
 53 45  1  0
 54 53  1  0
 45 55  1  1
 46 56  1  6
 47 57  1  1
 58 47  1  0
 59 47  1  0
 60 53  1  0
 61 60  1  0
 62 61  1  0
 63 62  2  0
 64 61  1  0
 65 64  1  0
 66 64  1  0
 67 62  1  0
 68 60  1  0
 61 69  1  6
 70 64  1  0
 71 65  1  0
 72 65  1  0
 73 65  1  0
 74 66  1  0
 75 66  1  0
 76 66  1  0
M  END
$$$$
8BYO
     RDKit          3D

 76 77  0  0  0  0  0  0  0  0999 V2000
   12.7330    8.0090   14.5520 N   0  0  0  0  0  0  0  0  0  0  0  0
   13.5820    9.1930   14.6730 C   0  0  2  0  0  0  0  0  0  0  0  0
   12.9050   10.4070   14.0420 C   0  0  0  0  0  0  0  0  0  0  0  0
   12.0290   10.2620   13.1920 O   0  0  0  0  0  0  0  0  0  0  0  0
   14.9450    8.9420   14.0170 C   0  0  0  0  0  0  0  0  0  0  0  0
   14.8590    8.3780   12.6270 C   0  0  0  0  0  0  0  0  0  0  0  0
   14.7270    9.2120   11.5300 C   0  0  0  0  0  0  0  0  0  0  0  0
   14.9070    7.0060   12.4180 C   0  0  0  0  0  0  0  0  0  0  0  0
   14.6460    8.6920   10.2500 C   0  0  0  0  0  0  0  0  0  0  0  0
   14.8220    6.4790   11.1430 C   0  0  0  0  0  0  0  0  0  0  0  0
   14.6940    7.3210   10.0560 C   0  0  0  0  0  0  0  0  0  0  0  0
   13.7350    9.3860   15.6110 H   0  0  0  0  0  0  0  0  0  0  0  0
   15.4250    9.7830   13.9650 H   0  0  0  0  0  0  0  0  0  0  0  0
   15.4410    8.3100   14.5620 H   0  0  0  0  0  0  0  0  0  0  0  0
   14.6940   10.1330   11.6540 H   0  0  0  0  0  0  0  0  0  0  0  0
   14.9970    6.4340   13.1460 H   0  0  0  0  0  0  0  0  0  0  0  0
   14.5590    9.2620    9.5210 H   0  0  0  0  0  0  0  0  0  0  0  0
   14.8510    5.5580   11.0170 H   0  0  0  0  0  0  0  0  0  0  0  0
   14.6400    6.9690    9.1970 H   0  0  0  0  0  0  0  0  0  0  0  0
   13.3010   11.6040   14.4620 N   0  0  0  0  0  0  0  0  0  0  0  0
   12.7210   12.8170   13.8790 C   0  0  2  0  0  0  0  0  0  0  0  0
   13.3210   13.1290   12.5150 C   0  0  0  0  0  0  0  0  0  0  0  0
   14.3820   12.6280   12.1380 O   0  0  0  0  0  0  0  0  0  0  0  0
   13.0910   13.8960   14.8970 C   0  0  0  0  0  0  0  0  0  0  0  0
   14.3960   13.4280   15.4620 C   0  0  0  0  0  0  0  0  0  0  0  0
   14.3060   11.9130   15.4980 C   0  0  0  0  0  0  0  0  0  0  0  0
   11.7560   12.7470   13.8050 H   0  0  0  0  0  0  0  0  0  0  0  0
   13.1880   14.7540   14.4550 H   0  0  0  0  0  0  0  0  0  0  0  0
   12.4110   13.9530   15.5860 H   0  0  0  0  0  0  0  0  0  0  0  0
   15.1240   13.7160   14.8900 H   0  0  0  0  0  0  0  0  0  0  0  0
   14.5140   13.7870   16.3560 H   0  0  0  0  0  0  0  0  0  0  0  0
   15.1620   11.5110   15.2800 H   0  0  0  0  0  0  0  0  0  0  0  0
   14.0090   11.6060   16.3690 H   0  0  0  0  0  0  0  0  0  0  0  0
   12.6190   13.9870   11.7770 N   0  0  0  0  0  0  0  0  0  0  0  0
   13.0340   14.3370   10.4400 C   0  0  2  0  0  0  0  0  0  0  0  0
   14.1610   15.3550   10.4210 C   0  0  0  0  0  0  0  0  0  0  0  0
   14.1100   16.3400   11.1490 O   0  0  0  0  0  0  0  0  0  0  0  0
   11.8520   14.9150    9.6520 C   0  0  0  0  0  0  0  0  0  0  0  0
   11.8980   14.3780   12.0380 H   0  0  0  0  0  0  0  0  0  0  0  0
   13.3520   13.5230   10.0190 H   0  0  0  0  0  0  0  0  0  0  0  0
   12.1540   15.1590    8.7630 H   0  0  0  0  0  0  0  0  0  0  0  0
   11.1540   14.2450    9.5930 H   0  0  0  0  0  0  0  0  0  0  0  0
   11.5190   15.7000   10.1150 H   0  0  0  0  0  0  0  0  0  0  0  0
   15.1550   15.1050    9.5750 N   0  0  0  0  0  0  0  0  0  0  0  0
   16.2280   16.0560    9.2590 C   0  0  1  0  0  0  0  0  0  0  0  0
   17.5470   15.7130    9.9900 C   0  0  1  0  0  0  0  0  0  0  0  0
   17.3930   15.8910   11.4880 C   0  0  2  0  0  0  0  0  0  0  0  0
   17.8520   14.3560    9.6070 O   0  0  0  0  0  0  0  0  0  0  0  0
   19.2870   13.7240   10.0030 P   0  0  0  0  0  0  0  0  0  0  0  0
   19.3750   12.4440    9.0880 O   0  0  0  0  0  0  0  0  0  0  0  0
   19.3120   13.3680   11.4330 O   0  0  0  0  0  0  0  0  0  0  0  0
   20.3880   14.7660    9.6670 O   0  0  0  0  0  0  0  0  0  0  0  0
   16.4290   16.0480    7.7480 C   0  0  0  0  0  0  0  0  0  0  0  0
   16.0350   15.0730    7.0840 O   0  0  0  0  0  0  0  0  0  0  0  0
   15.9850   16.9520    9.5700 H   0  0  0  0  0  0  0  0  0  0  0  0
   18.3660   16.3770    9.7140 H   0  0  0  0  0  0  0  0  0  0  0  0
   16.6400   15.1970   11.8610 H   0  0  0  0  0  0  0  0  0  0  0  0
   17.0820   16.9140   11.7030 H   0  0  0  0  0  0  0  0  0  0  0  0
   18.3450   15.6910   11.9780 H   0  0  0  0  0  0  0  0  0  0  0  0
   17.0140   17.0970    7.2030 N   0  0  0  0  0  0  0  0  0  0  0  0
   17.2690   17.1840    5.7800 C   0  0  2  0  0  0  0  0  0  0  0  0
   18.6930   17.5700    5.4760 C   0  0  0  0  0  0  0  0  0  0  0  0
   19.4840   17.9820    6.3450 O   0  0  0  0  0  0  0  0  0  0  0  0
   16.3410   18.1970    5.0780 C   0  0  0  0  0  0  0  0  0  0  0  0
   14.9320   17.7720    5.2010 C   0  0  0  0  0  0  0  0  0  0  0  0
   16.5510   19.6000    5.6280 C   0  0  0  0  0  0  0  0  0  0  0  0
   19.0650   17.4770    4.2890 O   0  0  0  0  0  0  0  0  0  0  0  0
   17.2790   17.7850    7.6450 H   0  0  0  0  0  0  0  0  0  0  0  0
   17.0990   16.2950    5.4320 H   0  0  0  0  0  0  0  0  0  0  0  0
   16.5620   18.2260    4.1340 H   0  0  0  0  0  0  0  0  0  0  0  0
   14.3710   18.3890    4.7050 H   0  0  0  0  0  0  0  0  0  0  0  0
   14.8400   16.8770    4.8390 H   0  0  0  0  0  0  0  0  0  0  0  0
   14.6810   17.7780    6.1380 H   0  0  0  0  0  0  0  0  0  0  0  0
   17.0800   19.5450    6.4390 H   0  0  0  0  0  0  0  0  0  0  0  0
   17.0180   20.1320    4.9650 H   0  0  0  0  0  0  0  0  0  0  0  0
   15.6870   19.9950    5.8220 H   0  0  0  0  0  0  0  0  0  0  0  0
  2  1  1  0
  3  2  1  0
  4  3  2  0
  5  2  1  0
  6  5  1  0
  7  6  2  0
  8  6  1  0
  9  7  1  0
 10  8  2  0
 11  9  2  0
 11 10  1  0
  2 12  1  1
 13  5  1  0
 14  5  1  0
 15  7  1  0
 16  8  1  0
 17  9  1  0
 18 10  1  0
 19 11  1  0
 20  3  1  0
 21 20  1  0
 22 21  1  0
 23 22  2  0
 24 21  1  0
 25 24  1  0
 26 25  1  0
 26 20  1  0
 21 27  1  6
 28 24  1  0
 29 24  1  0
 30 25  1  0
 31 25  1  0
 32 26  1  0
 33 26  1  0
 34 22  1  0
 35 34  1  0
 36 35  1  0
 37 36  2  0
 38 35  1  0
 39 34  1  0
 35 40  1  6
 41 38  1  0
 42 38  1  0
 43 38  1  0
 44 36  1  0
 45 44  1  0
 46 45  1  0
 47 46  1  0
 48 46  1  0
 49 48  1  0
 50 49  1  0
 51 49  1  0
 52 49  1  0
 53 45  1  0
 54 53  1  0
 45 55  1  1
 46 56  1  6
 47 57  1  1
 58 47  1  0
 59 47  1  0
 60 53  1  0
 61 60  1  0
 62 61  1  0
 63 62  2  0
 64 61  1  0
 65 64  1  0
 66 64  1  0
 67 62  1  0
 68 60  1  0
 61 69  1  6
 70 64  1  0
 71 65  1  0
 72 65  1  0
 73 65  1  0
 74 66  1  0
 75 66  1  0
 76 66  1  0
M  END
$$$$
2R6W
     RDKit          3D

 35 39  0  0  0  0  0  0  0  0999 V2000
   10.7080   53.3480   59.6360 C   0  0  0  0  0  0  0  0  0  0  0  0
   10.2010   54.6090   60.1340 C   0  0  0  0  0  0  0  0  0  0  0  0
    8.7920   54.8130   60.2910 C   0  0  0  0  0  0  0  0  0  0  0  0
   11.7390   56.6550   71.3940 C   0  0  0  0  0  0  0  0  0  0  0  0
   13.2350   53.9520   59.7510 C   0  0  0  0  0  0  0  0  0  0  0  0
   14.1970   55.0950   63.7940 C   0  0  0  0  0  0  0  0  0  0  0  0
   14.8140   55.7760   62.7110 C   0  0  0  0  0  0  0  0  0  0  0  0
   14.4950   55.3920   61.3700 C   0  0  0  0  0  0  0  0  0  0  0  0
   15.2480   56.4120   65.4630 C   0  0  0  0  0  0  0  0  0  0  0  0
   13.8880   54.4290   58.8390 O   0  0  0  0  0  0  0  0  0  0  0  0
   12.1240   53.0060   59.4430 C   0  0  0  0  0  0  0  0  0  0  0  0
   12.2990   51.6840   58.9650 C   0  0  0  0  0  0  0  0  0  0  0  0
   13.6050   51.0450   58.6540 C   0  0  0  0  0  0  0  0  0  0  0  0
   14.6140   50.9770   59.6100 C   0  0  0  0  0  0  0  0  0  0  0  0
   15.8550   50.3780   59.2780 C   0  0  0  0  0  0  0  0  0  0  0  0
   16.0650   49.8660   57.9880 C   0  0  0  0  0  0  0  0  0  0  0  0
   17.2630   49.2760   57.6190 O   0  0  0  0  0  0  0  0  0  0  0  0
   15.0450   49.9230   57.0100 C   0  0  0  0  0  0  0  0  0  0  0  0
   13.8060   50.5260   57.3600 C   0  0  0  0  0  0  0  0  0  0  0  0
   10.7740   50.9350   58.7570 S   0  0  0  0  0  0  0  0  0  0  0  0
    9.8470   52.3010   59.2910 C   0  0  0  0  0  0  0  0  0  0  0  0
    8.4540   52.4840   59.4420 C   0  0  0  0  0  0  0  0  0  0  0  0
    7.9420   53.7470   59.9390 C   0  0  0  0  0  0  0  0  0  0  0  0
    6.5930   53.8990   60.0350 O   0  0  0  0  0  0  0  0  0  0  0  0
   13.5620   54.3280   61.1600 C   0  0  0  0  0  0  0  0  0  0  0  0
   13.2770   54.0730   63.5960 C   0  0  0  0  0  0  0  0  0  0  0  0
   12.9500   53.6820   62.2850 C   0  0  0  0  0  0  0  0  0  0  0  0
   14.4150   55.3460   65.1190 O   0  0  0  0  0  0  0  0  0  0  0  0
   15.4330   56.3180   66.9750 C   0  0  0  0  0  0  0  0  0  0  0  0
   14.3510   56.6080   67.9170 N   0  0  0  0  0  0  0  0  0  0  0  0
   13.5420   55.3660   68.1680 C   0  0  0  0  0  0  0  0  0  0  0  0
   12.4690   55.4960   69.2680 C   0  0  0  0  0  0  0  0  0  0  0  0
   12.9630   56.2400   70.5520 C   0  0  1  0  0  0  0  0  0  0  0  0
   13.7750   57.4960   70.2600 C   0  0  0  0  0  0  0  0  0  0  0  0
   14.8430   57.2060   69.1970 C   0  0  0  0  0  0  0  0  0  0  0  0
  2  1  1  0
  3  2  1  0
  7  6  1  0
  8  7  1  0
 10  5  1  0
 11  1  1  0
 11  5  1  0
 12 11  1  0
 13 12  1  0
 14 13  1  0
 15 14  1  0
 16 15  1  0
 17 16  1  0
 18 16  1  0
 19 18  1  0
 19 13  1  0
 20 12  1  0
 21 20  1  0
 21  1  1  0
 22 21  1  0
 23 22  1  0
 23  3  1  0
 24 23  1  0
 25  5  1  0
 25  8  1  0
 26  6  1  0
 27 26  1  0
 27 25  1  0
 28  6  1  0
 28  9  1  0
 29  9  1  0
 30 29  1  0
 31 30  1  0
 32 31  1  0
 33 32  1  0
 33  4  1  1
 34 33  1  0
 35 34  1  0
 35 30  1  0
M  END
$$$$
8BZC
     RDKit          3D

 71 72  0  0  0  0  0  0  0  0999 V2000
   12.7620    7.9900   14.3920 N   0  0  0  0  0  0  0  0  0  0  0  0
   13.6760    9.1300   14.3970 C   0  0  2  0  0  0  0  0  0  0  0  0
   13.0170   10.3610   13.7810 C   0  0  0  0  0  0  0  0  0  0  0  0
   12.1590   10.2430   12.9050 O   0  0  0  0  0  0  0  0  0  0  0  0
   14.9730    8.7820   13.6540 C   0  0  0  0  0  0  0  0  0  0  0  0
   14.7610    8.2590   12.2560 C   0  0  0  0  0  0  0  0  0  0  0  0
   14.7110    9.1260   11.1740 C   0  0  0  0  0  0  0  0  0  0  0  0
   14.6120    6.8970   12.0230 C   0  0  0  0  0  0  0  0  0  0  0  0
   14.5170    8.6460    9.8900 C   0  0  0  0  0  0  0  0  0  0  0  0
   14.4130    6.4110   10.7400 C   0  0  0  0  0  0  0  0  0  0  0  0
   14.3680    7.2850    9.6730 C   0  0  0  0  0  0  0  0  0  0  0  0
   13.9110    9.3480   15.3130 H   0  0  0  0  0  0  0  0  0  0  0  0
   15.5180    9.5810   13.5900 H   0  0  0  0  0  0  0  0  0  0  0  0
   15.4440    8.0980   14.1550 H   0  0  0  0  0  0  0  0  0  0  0  0
   14.8090   10.0400   11.3130 H   0  0  0  0  0  0  0  0  0  0  0  0
   14.6470    6.3030   12.7380 H   0  0  0  0  0  0  0  0  0  0  0  0
   14.4860    9.2370    9.1720 H   0  0  0  0  0  0  0  0  0  0  0  0
   14.3100    5.4980   10.5980 H   0  0  0  0  0  0  0  0  0  0  0  0
   14.2390    6.9620    8.8100 H   0  0  0  0  0  0  0  0  0  0  0  0
   13.4130   11.5460   14.2340 N   0  0  0  0  0  0  0  0  0  0  0  0
   12.8390   12.7740   13.6800 C   0  0  2  0  0  0  0  0  0  0  0  0
   13.4470   13.1020   12.3220 C   0  0  0  0  0  0  0  0  0  0  0  0
   14.5190   12.6280   11.9510 O   0  0  0  0  0  0  0  0  0  0  0  0
   13.2230   13.8280   14.7190 C   0  0  0  0  0  0  0  0  0  0  0  0
   14.5390   13.3300   15.2640 C   0  0  0  0  0  0  0  0  0  0  0  0
   14.4260   11.8220   15.2720 C   0  0  0  0  0  0  0  0  0  0  0  0
   11.8740   12.7170   13.6060 H   0  0  0  0  0  0  0  0  0  0  0  0
   13.3240   14.6960   14.2960 H   0  0  0  0  0  0  0  0  0  0  0  0
   12.5490   13.8750   15.4150 H   0  0  0  0  0  0  0  0  0  0  0  0
   15.2630   13.6190   14.6870 H   0  0  0  0  0  0  0  0  0  0  0  0
   14.6730   13.6700   16.1620 H   0  0  0  0  0  0  0  0  0  0  0  0
   15.2750   11.4130   15.0420 H   0  0  0  0  0  0  0  0  0  0  0  0
   14.1280   11.5040   16.1380 H   0  0  0  0  0  0  0  0  0  0  0  0
   12.7370   13.9510   11.5750 N   0  0  0  0  0  0  0  0  0  0  0  0
   13.1400   14.3200   10.2270 C   0  0  2  0  0  0  0  0  0  0  0  0
   14.2860   15.3300   10.2240 C   0  0  0  0  0  0  0  0  0  0  0  0
   14.2350   16.3020   10.9770 O   0  0  0  0  0  0  0  0  0  0  0  0
   11.9510   14.9040    9.4660 C   0  0  0  0  0  0  0  0  0  0  0  0
   12.0090   14.3290   11.8340 H   0  0  0  0  0  0  0  0  0  0  0  0
   13.4480   13.5170    9.7780 H   0  0  0  0  0  0  0  0  0  0  0  0
   12.2370   15.1440    8.5700 H   0  0  0  0  0  0  0  0  0  0  0  0
   11.2470   14.2390    9.4210 H   0  0  0  0  0  0  0  0  0  0  0  0
   11.6330   15.6920    9.9340 H   0  0  0  0  0  0  0  0  0  0  0  0
   15.2830   15.1000    9.3730 N   0  0  0  0  0  0  0  0  0  0  0  0
   16.3420   16.0760    9.0910 C   0  0  1  0  0  0  0  0  0  0  0  0
   17.6460   15.7310    9.8590 C   0  0  1  0  0  0  0  0  0  0  0  0
   17.4540   15.8800   11.3630 C   0  0  0  0  0  0  0  0  0  0  0  0
   17.9150   14.3510    9.5330 O   0  0  0  0  0  0  0  0  0  0  0  0
   19.3410   13.6950    9.9320 P   0  0  0  0  0  0  0  0  0  0  0  0
   19.4190   12.4000    9.0220 O   0  0  0  0  0  0  0  0  0  0  0  0
   19.3820   13.3490   11.3750 O   0  0  0  0  0  0  0  0  0  0  0  0
   20.4600   14.7110    9.5920 O   0  0  0  0  0  0  0  0  0  0  0  0
   16.5920   16.0950    7.5910 C   0  0  0  0  0  0  0  0  0  0  0  0
   16.2740   15.1100    6.8960 O   0  0  0  0  0  0  0  0  0  0  0  0
   17.1570   17.1710    7.0820 N   0  0  0  0  0  0  0  0  0  0  0  0
   17.4690   17.2490    5.6650 C   0  0  2  0  0  0  0  0  0  0  0  0
   18.9090   17.6330    5.4070 C   0  0  0  0  0  0  0  0  0  0  0  0
   19.6970   17.9730    6.2980 O   0  0  0  0  0  0  0  0  0  0  0  0
   16.5580   18.2510    4.9200 C   0  0  0  0  0  0  0  0  0  0  0  0
   15.1330   17.8150    4.9950 C   0  0  0  0  0  0  0  0  0  0  0  0
   16.7440   19.6790    5.4500 C   0  0  0  0  0  0  0  0  0  0  0  0
   19.3130   17.6240    4.2360 O   0  0  0  0  0  0  0  0  0  0  0  0
   17.3720   17.8700    7.5340 H   0  0  0  0  0  0  0  0  0  0  0  0
   17.3200   16.3560    5.3180 H   0  0  0  0  0  0  0  0  0  0  0  0
   16.8120   18.2670    3.9840 H   0  0  0  0  0  0  0  0  0  0  0  0
   14.5820   18.4510    4.5130 H   0  0  0  0  0  0  0  0  0  0  0  0
   15.0500   16.9350    4.5950 H   0  0  0  0  0  0  0  0  0  0  0  0
   14.8620   17.7820    5.9260 H   0  0  0  0  0  0  0  0  0  0  0  0
   16.0590   20.2490    5.0680 H   0  0  0  0  0  0  0  0  0  0  0  0
   16.6670   19.6700    6.4160 H   0  0  0  0  0  0  0  0  0  0  0  0
   17.6230   19.9990    5.1910 H   0  0  0  0  0  0  0  0  0  0  0  0
  2  1  1  0
  3  2  1  0
  4  3  2  0
  5  2  1  0
  6  5  1  0
  7  6  2  0
  8  6  1  0
  9  7  1  0
 10  8  2  0
 11 10  1  0
 11  9  2  0
  2 12  1  1
 13  5  1  0
 14  5  1  0
 15  7  1  0
 16  8  1  0
 17  9  1  0
 18 10  1  0
 19 11  1  0
 20  3  1  0
 21 20  1  0
 22 21  1  0
 23 22  2  0
 24 21  1  0
 25 24  1  0
 26 25  1  0
 26 20  1  0
 21 27  1  6
 28 24  1  0
 29 24  1  0
 30 25  1  0
 31 25  1  0
 32 26  1  0
 33 26  1  0
 34 22  1  0
 35 34  1  0
 36 35  1  0
 37 36  2  0
 38 35  1  0
 39 34  1  0
 35 40  1  6
 41 38  1  0
 42 38  1  0
 43 38  1  0
 44 36  1  0
 45 44  1  6
 46 45  1  0
 46 47  1  1
 48 46  1  0
 49 48  1  0
 50 49  1  0
 51 49  1  0
 52 49  1  0
 53 45  1  0
 54 53  1  0
 55 53  1  0
 56 55  1  0
 57 56  1  0
 58 57  2  0
 59 56  1  0
 60 59  1  0
 61 59  1  0
 62 57  1  0
 63 55  1  0
 56 64  1  6
 65 59  1  0
 66 60  1  0
 67 60  1  0
 68 60  1  0
 69 61  1  0
 70 61  1  0
 71 61  1  0
M  END
$$$$
8BY9
     RDKit          3D

 71 72  0  0  0  0  0  0  0  0999 V2000
  -12.7670    7.8340  -14.7910 N   0  0  0  0  0  0  0  0  0  0  0  0
  -13.6840    8.9740  -14.7650 C   0  0  2  0  0  0  0  0  0  0  0  0
  -12.9840   10.1800  -14.1390 C   0  0  0  0  0  0  0  0  0  0  0  0
  -12.0820   10.0210  -13.3060 O   0  0  0  0  0  0  0  0  0  0  0  0
  -14.9790    8.6050  -14.0140 C   0  0  0  0  0  0  0  0  0  0  0  0
  -14.7730    8.1650  -12.5840 C   0  0  0  0  0  0  0  0  0  0  0  0
  -14.3450    9.0570  -11.6070 C   0  0  0  0  0  0  0  0  0  0  0  0
  -15.0010    6.8410  -12.2200 C   0  0  0  0  0  0  0  0  0  0  0  0
  -14.1540    8.6380  -10.2990 C   0  0  0  0  0  0  0  0  0  0  0  0
  -14.8080    6.4160  -10.9140 C   0  0  0  0  0  0  0  0  0  0  0  0
  -14.3870    7.3130   -9.9540 C   0  0  0  0  0  0  0  0  0  0  0  0
  -13.9500    9.2210  -15.6640 H   0  0  0  0  0  0  0  0  0  0  0  0
  -15.5600    9.3820  -14.0010 H   0  0  0  0  0  0  0  0  0  0  0  0
  -15.4120    7.8760  -14.4860 H   0  0  0  0  0  0  0  0  0  0  0  0
  -14.1850    9.9450  -11.8340 H   0  0  0  0  0  0  0  0  0  0  0  0
  -15.2890    6.2320  -12.8620 H   0  0  0  0  0  0  0  0  0  0  0  0
  -13.8710    9.2440   -9.6530 H   0  0  0  0  0  0  0  0  0  0  0  0
  -14.9610    5.5280  -10.6860 H   0  0  0  0  0  0  0  0  0  0  0  0
  -14.2590    7.0300   -9.0770 H   0  0  0  0  0  0  0  0  0  0  0  0
  -13.3750   11.3850  -14.5440 N   0  0  0  0  0  0  0  0  0  0  0  0
  -12.7720   12.5860  -13.9620 C   0  0  2  0  0  0  0  0  0  0  0  0
  -13.3610   12.8940  -12.5950 C   0  0  0  0  0  0  0  0  0  0  0  0
  -14.4410   12.4310  -12.2170 O   0  0  0  0  0  0  0  0  0  0  0  0
  -13.1150   13.6800  -14.9790 C   0  0  0  0  0  0  0  0  0  0  0  0
  -14.4250   13.2390  -15.5670 C   0  0  0  0  0  0  0  0  0  0  0  0
  -14.3970   11.7200  -15.5580 C   0  0  0  0  0  0  0  0  0  0  0  0
  -11.8080   12.5020  -13.8910 H   0  0  0  0  0  0  0  0  0  0  0  0
  -13.2030   14.5360  -14.5320 H   0  0  0  0  0  0  0  0  0  0  0  0
  -12.4250   13.7310  -15.6590 H   0  0  0  0  0  0  0  0  0  0  0  0
  -15.1560   13.5720  -15.0240 H   0  0  0  0  0  0  0  0  0  0  0  0
  -14.5060   13.5750  -16.4740 H   0  0  0  0  0  0  0  0  0  0  0  0
  -15.2620   11.3630  -15.3020 H   0  0  0  0  0  0  0  0  0  0  0  0
  -14.1410   11.3760  -16.4280 H   0  0  0  0  0  0  0  0  0  0  0  0
  -12.6270   13.7090  -11.8500 N   0  0  0  0  0  0  0  0  0  0  0  0
  -13.0280   14.0820  -10.5260 C   0  0  2  0  0  0  0  0  0  0  0  0
  -14.1430   15.1390  -10.4820 C   0  0  0  0  0  0  0  0  0  0  0  0
  -14.0870   16.1580  -11.1920 O   0  0  0  0  0  0  0  0  0  0  0  0
  -11.8310   14.6070   -9.7400 C   0  0  0  0  0  0  0  0  0  0  0  0
  -11.8830   14.0580  -12.1030 H   0  0  0  0  0  0  0  0  0  0  0  0
  -13.3800   13.2770  -10.1150 H   0  0  0  0  0  0  0  0  0  0  0  0
  -12.1220   14.8540   -8.8480 H   0  0  0  0  0  0  0  0  0  0  0  0
  -11.1570   13.9110   -9.6870 H   0  0  0  0  0  0  0  0  0  0  0  0
  -11.4690   15.3830  -10.1960 H   0  0  0  0  0  0  0  0  0  0  0  0
  -15.1320   14.8900   -9.6210 N   0  0  0  0  0  0  0  0  0  0  0  0
  -16.1730   15.8560   -9.2800 C   0  0  1  0  0  0  0  0  0  0  0  0
  -17.5220   15.5520  -10.0220 C   0  0  1  0  0  0  0  0  0  0  0  0
  -17.3910   15.7410  -11.5390 C   0  0  0  0  0  0  0  0  0  0  0  0
  -17.7940   14.2080   -9.6620 O   0  0  0  0  0  0  0  0  0  0  0  0
  -19.2660   13.6130  -10.0200 P   0  0  0  0  0  0  0  0  0  0  0  0
  -19.2640   13.1920  -11.4280 O   0  0  0  0  0  0  0  0  0  0  0  0
  -19.3540   12.3410   -9.0500 O   0  0  0  0  0  0  0  0  0  0  0  0
  -20.3650   14.6540   -9.6610 O   0  0  0  0  0  0  0  0  0  0  0  0
  -16.3740   15.8290   -7.7730 C   0  0  0  0  0  0  0  0  0  0  0  0
  -15.9820   14.8600   -7.0920 O   0  0  0  0  0  0  0  0  0  0  0  0
  -16.9520   16.8970   -7.2350 N   0  0  0  0  0  0  0  0  0  0  0  0
  -17.1690   17.0150   -5.8060 C   0  0  2  0  0  0  0  0  0  0  0  0
  -18.5830   17.4600   -5.4830 C   0  0  0  0  0  0  0  0  0  0  0  0
  -19.3450   17.8510   -6.3730 O   0  0  0  0  0  0  0  0  0  0  0  0
  -16.1830   18.0160   -5.1380 C   0  0  0  0  0  0  0  0  0  0  0  0
  -14.7950   17.5580   -5.2850 C   0  0  0  0  0  0  0  0  0  0  0  0
  -16.3790   19.4270   -5.7000 C   0  0  0  0  0  0  0  0  0  0  0  0
  -18.9810   17.4510   -4.2940 O   0  0  0  0  0  0  0  0  0  0  0  0
  -17.2290   17.5740   -7.6860 H   0  0  0  0  0  0  0  0  0  0  0  0
  -17.0220   16.1270   -5.4430 H   0  0  0  0  0  0  0  0  0  0  0  0
  -16.3730   18.0560   -4.1870 H   0  0  0  0  0  0  0  0  0  0  0  0
  -14.2070   18.1840   -4.8340 H   0  0  0  0  0  0  0  0  0  0  0  0
  -14.7090   16.6780   -4.8870 H   0  0  0  0  0  0  0  0  0  0  0  0
  -14.5750   17.5170   -6.2290 H   0  0  0  0  0  0  0  0  0  0  0  0
  -17.0690   19.4030   -6.3810 H   0  0  0  0  0  0  0  0  0  0  0  0
  -16.6450   20.0200   -4.9790 H   0  0  0  0  0  0  0  0  0  0  0  0
  -15.5430   19.7320   -6.0870 H   0  0  0  0  0  0  0  0  0  0  0  0
  2  1  1  0
  3  2  1  0
  4  3  2  0
  5  2  1  0
  6  5  1  0
  7  6  2  0
  8  6  1  0
  9  7  1  0
 10  8  2  0
 11 10  1  0
 11  9  2  0
  2 12  1  6
 13  5  1  0
 14  5  1  0
 15  7  1  0
 16  8  1  0
 17  9  1  0
 18 10  1  0
 19 11  1  0
 20  3  1  0
 21 20  1  0
 22 21  1  0
 23 22  2  0
 24 21  1  0
 25 24  1  0
 26 25  1  0
 26 20  1  0
 21 27  1  1
 28 24  1  0
 29 24  1  0
 30 25  1  0
 31 25  1  0
 32 26  1  0
 33 26  1  0
 34 22  1  0
 35 34  1  0
 36 35  1  0
 37 36  2  0
 38 35  1  0
 39 34  1  0
 35 40  1  1
 41 38  1  0
 42 38  1  0
 43 38  1  0
 44 36  1  0
 45 44  1  1
 46 45  1  0
 46 47  1  6
 48 46  1  0
 49 48  1  0
 50 49  1  0
 51 49  1  0
 52 49  1  0
 53 45  1  0
 54 53  1  0
 55 53  1  0
 56 55  1  0
 57 56  1  0
 58 57  2  0
 59 56  1  0
 60 59  1  0
 61 59  1  0
 62 57  1  0
 63 55  1  0
 56 64  1  1
 65 59  1  0
 66 60  1  0
 67 60  1  0
 68 60  1  0
 69 61  1  0
 70 61  1  0
 71 61  1  0
M  END
$$$$
8BZB
     RDKit          3D

 71 72  0  0  0  0  0  0  0  0999 V2000
   12.9110    8.0150   14.3620 N   0  0  0  0  0  0  0  0  0  0  0  0
   13.8430    9.1420   14.3180 C   0  0  2  0  0  0  0  0  0  0  0  0
   13.1970   10.3800   13.6770 C   0  0  0  0  0  0  0  0  0  0  0  0
   12.3610   10.2590   12.7730 O   0  0  0  0  0  0  0  0  0  0  0  0
   15.1150    8.7580   13.5450 C   0  0  0  0  0  0  0  0  0  0  0  0
   14.8530    8.2270   12.1610 C   0  0  0  0  0  0  0  0  0  0  0  0
   14.7570    9.0900   11.0730 C   0  0  0  0  0  0  0  0  0  0  0  0
   14.7030    6.8580   11.9440 C   0  0  0  0  0  0  0  0  0  0  0  0
   14.5070    8.5950    9.7940 C   0  0  0  0  0  0  0  0  0  0  0  0
   14.4530    6.3610   10.6680 C   0  0  0  0  0  0  0  0  0  0  0  0
   14.3600    7.2300    9.5960 C   0  0  0  0  0  0  0  0  0  0  0  0
   14.0940    9.3720   15.2260 H   0  0  0  0  0  0  0  0  0  0  0  0
   15.6750    9.5450   13.4580 H   0  0  0  0  0  0  0  0  0  0  0  0
   15.5840    8.0700   14.0410 H   0  0  0  0  0  0  0  0  0  0  0  0
   14.8600   10.0050   11.2010 H   0  0  0  0  0  0  0  0  0  0  0  0
   14.7710    6.2700   12.6610 H   0  0  0  0  0  0  0  0  0  0  0  0
   14.4390    9.1800    9.0740 H   0  0  0  0  0  0  0  0  0  0  0  0
   14.3480    5.4470   10.5370 H   0  0  0  0  0  0  0  0  0  0  0  0
   14.1990    6.8980    8.7420 H   0  0  0  0  0  0  0  0  0  0  0  0
   13.5860   11.5650   14.1390 N   0  0  0  0  0  0  0  0  0  0  0  0
   12.9980   12.7980   13.6010 C   0  0  2  0  0  0  0  0  0  0  0  0
   13.5730   13.1520   12.2360 C   0  0  0  0  0  0  0  0  0  0  0  0
   14.6440   12.7060   11.8280 O   0  0  0  0  0  0  0  0  0  0  0  0
   13.3550   13.8550   14.6550 C   0  0  0  0  0  0  0  0  0  0  0  0
   14.6440   13.3430   15.2630 C   0  0  0  0  0  0  0  0  0  0  0  0
   14.5290   11.8230   15.2490 C   0  0  0  0  0  0  0  0  0  0  0  0
   12.0330   12.7230   13.5350 H   0  0  0  0  0  0  0  0  0  0  0  0
   13.4850   14.7180   14.2320 H   0  0  0  0  0  0  0  0  0  0  0  0
   12.6520   13.9140   15.3210 H   0  0  0  0  0  0  0  0  0  0  0  0
   15.3990   13.6360   14.7280 H   0  0  0  0  0  0  0  0  0  0  0  0
   14.7330   13.6730   16.1710 H   0  0  0  0  0  0  0  0  0  0  0  0
   15.3900   11.4120   15.0730 H   0  0  0  0  0  0  0  0  0  0  0  0
   14.1710   11.4950   16.0890 H   0  0  0  0  0  0  0  0  0  0  0  0
   12.8400   13.9970   11.5160 N   0  0  0  0  0  0  0  0  0  0  0  0
   13.2520   14.3520   10.1760 C   0  0  2  0  0  0  0  0  0  0  0  0
   14.3710   15.3840   10.1770 C   0  0  0  0  0  0  0  0  0  0  0  0
   14.2910   16.3430   10.9200 O   0  0  0  0  0  0  0  0  0  0  0  0
   12.0520   14.8900    9.3600 C   0  0  0  0  0  0  0  0  0  0  0  0
   12.1120   14.3680   11.7830 H   0  0  0  0  0  0  0  0  0  0  0  0
   13.5860   13.5490    9.7470 H   0  0  0  0  0  0  0  0  0  0  0  0
   12.3550   15.1200    8.4680 H   0  0  0  0  0  0  0  0  0  0  0  0
   11.3710   14.2020    9.3100 H   0  0  0  0  0  0  0  0  0  0  0  0
   11.6970   15.6760    9.8020 H   0  0  0  0  0  0  0  0  0  0  0  0
   15.3900   15.1540    9.3480 N   0  0  0  0  0  0  0  0  0  0  0  0
   16.4600   16.1140    9.0590 C   0  0  1  0  0  0  0  0  0  0  0  0
   17.7660   15.7500    9.8220 C   0  0  1  0  0  0  0  0  0  0  0  0
   17.6050   15.9320   11.3410 C   0  0  0  0  0  0  0  0  0  0  0  0
   17.9610   14.3640    9.5300 O   0  0  0  0  0  0  0  0  0  0  0  0
   19.4500   13.7920    9.8730 P   0  0  0  0  0  0  0  0  0  0  0  0
   19.4950   12.4730    8.9820 O   0  0  0  0  0  0  0  0  0  0  0  0
   19.4900   13.3740   11.3050 O   0  0  0  0  0  0  0  0  0  0  0  0
   20.5980   14.8080    9.5030 O   0  0  0  0  0  0  0  0  0  0  0  0
   16.7140   16.1200    7.5540 C   0  0  0  0  0  0  0  0  0  0  0  0
   16.4080   15.1410    6.8690 O   0  0  0  0  0  0  0  0  0  0  0  0
   17.2620   17.2110    7.0430 N   0  0  0  0  0  0  0  0  0  0  0  0
   17.5560   17.2950    5.6170 C   0  0  2  0  0  0  0  0  0  0  0  0
   18.9780   17.7110    5.3690 C   0  0  0  0  0  0  0  0  0  0  0  0
   19.7560   18.0420    6.2700 O   0  0  0  0  0  0  0  0  0  0  0  0
   16.6040   18.2990    4.8750 C   0  0  0  0  0  0  0  0  0  0  0  0
   15.1890   17.8650    5.0180 C   0  0  0  0  0  0  0  0  0  0  0  0
   16.8340   19.7240    5.3870 C   0  0  0  0  0  0  0  0  0  0  0  0
   19.3750   17.7560    4.1970 O   0  0  0  0  0  0  0  0  0  0  0  0
   17.4730   17.9110    7.4960 H   0  0  0  0  0  0  0  0  0  0  0  0
   17.4190   16.4050    5.2570 H   0  0  0  0  0  0  0  0  0  0  0  0
   16.8030   18.3040    3.9260 H   0  0  0  0  0  0  0  0  0  0  0  0
   14.6220   18.4620    4.5060 H   0  0  0  0  0  0  0  0  0  0  0  0
   15.1010   16.9580    4.6840 H   0  0  0  0  0  0  0  0  0  0  0  0
   14.9420   17.8970    5.9560 H   0  0  0  0  0  0  0  0  0  0  0  0
   16.1170   20.2940    5.0680 H   0  0  0  0  0  0  0  0  0  0  0  0
   16.8410   19.7130    6.3570 H   0  0  0  0  0  0  0  0  0  0  0  0
   17.6860   20.0450    5.0540 H   0  0  0  0  0  0  0  0  0  0  0  0
  2  1  1  0
  3  2  1  0
  4  3  2  0
  5  2  1  0
  6  5  1  0
  7  6  2  0
  8  6  1  0
  9  7  1  0
 10  8  2  0
 11 10  1  0
 11  9  2  0
  2 12  1  1
 13  5  1  0
 14  5  1  0
 15  7  1  0
 16  8  1  0
 17  9  1  0
 18 10  1  0
 19 11  1  0
 20  3  1  0
 21 20  1  0
 22 21  1  0
 23 22  2  0
 24 21  1  0
 25 24  1  0
 26 25  1  0
 26 20  1  0
 21 27  1  6
 28 24  1  0
 29 24  1  0
 30 25  1  0
 31 25  1  0
 32 26  1  0
 33 26  1  0
 34 22  1  0
 35 34  1  0
 36 35  1  0
 37 36  2  0
 38 35  1  0
 39 34  1  0
 35 40  1  6
 41 38  1  0
 42 38  1  0
 43 38  1  0
 44 36  1  0
 45 44  1  6
 46 45  1  0
 46 47  1  1
 48 46  1  0
 49 48  1  0
 50 49  1  0
 51 49  1  0
 52 49  1  0
 53 45  1  0
 54 53  1  0
 55 53  1  0
 56 55  1  0
 57 56  1  0
 58 57  2  0
 59 56  1  0
 60 59  1  0
 61 59  1  0
 62 57  1  0
 63 55  1  0
 56 64  1  6
 65 59  1  0
 66 60  1  0
 67 60  1  0
 68 60  1  0
 69 61  1  0
 70 61  1  0
 71 61  1  0
M  END
$$$$
8BYY
     RDKit          3D

 71 72  0  0  0  0  0  0  0  0999 V2000
  -12.6290   -7.9950   14.6860 N   0  0  0  0  0  0  0  0  0  0  0  0
  -13.5760   -9.1120   14.6640 C   0  0  2  0  0  0  0  0  0  0  0  0
  -12.9500  -10.3370   14.0070 C   0  0  0  0  0  0  0  0  0  0  0  0
  -12.1000  -10.2200   13.1210 O   0  0  0  0  0  0  0  0  0  0  0  0
  -14.8760   -8.6980   13.9510 C   0  0  0  0  0  0  0  0  0  0  0  0
  -14.6830   -8.1870   12.5500 C   0  0  0  0  0  0  0  0  0  0  0  0
  -14.3450   -9.0430   11.5120 C   0  0  0  0  0  0  0  0  0  0  0  0
  -14.8360   -6.8340   12.2720 C   0  0  0  0  0  0  0  0  0  0  0  0
  -14.1650   -8.5600   10.2240 C   0  0  0  0  0  0  0  0  0  0  0  0
  -14.6500   -6.3430   10.9860 C   0  0  0  0  0  0  0  0  0  0  0  0
  -14.3220   -7.2050    9.9620 C   0  0  0  0  0  0  0  0  0  0  0  0
  -13.8130   -9.3580   15.5710 H   0  0  0  0  0  0  0  0  0  0  0  0
  -15.4610   -9.4700   13.9030 H   0  0  0  0  0  0  0  0  0  0  0  0
  -15.2990   -7.9930   14.4650 H   0  0  0  0  0  0  0  0  0  0  0  0
  -14.2380   -9.9510   11.6820 H   0  0  0  0  0  0  0  0  0  0  0  0
  -15.0670   -6.2480   12.9570 H   0  0  0  0  0  0  0  0  0  0  0  0
  -13.9380   -9.1430    9.5350 H   0  0  0  0  0  0  0  0  0  0  0  0
  -14.7460   -5.4340   10.8170 H   0  0  0  0  0  0  0  0  0  0  0  0
  -14.2060   -6.8810    9.0990 H   0  0  0  0  0  0  0  0  0  0  0  0
  -13.3630  -11.5210   14.4380 N   0  0  0  0  0  0  0  0  0  0  0  0
  -12.7890  -12.7430   13.8740 C   0  0  2  0  0  0  0  0  0  0  0  0
  -13.3680  -13.0620   12.5040 C   0  0  0  0  0  0  0  0  0  0  0  0
  -14.4400  -12.5950   12.1060 O   0  0  0  0  0  0  0  0  0  0  0  0
  -13.1680  -13.8080   14.9080 C   0  0  0  0  0  0  0  0  0  0  0  0
  -14.4530  -13.3200   15.5010 C   0  0  0  0  0  0  0  0  0  0  0  0
  -14.3720  -11.8050   15.4830 C   0  0  0  0  0  0  0  0  0  0  0  0
  -11.8230  -12.6830   13.8060 H   0  0  0  0  0  0  0  0  0  0  0  0
  -13.2890  -14.6660   14.4710 H   0  0  0  0  0  0  0  0  0  0  0  0
  -12.4750  -13.8750   15.5830 H   0  0  0  0  0  0  0  0  0  0  0  0
  -15.1990  -13.6300   14.9650 H   0  0  0  0  0  0  0  0  0  0  0  0
  -14.5390  -13.6480   16.4100 H   0  0  0  0  0  0  0  0  0  0  0  0
  -15.2290  -11.4170   15.2470 H   0  0  0  0  0  0  0  0  0  0  0  0
  -14.0800  -11.4660   16.3430 H   0  0  0  0  0  0  0  0  0  0  0  0
  -12.6310  -13.8870   11.7700 N   0  0  0  0  0  0  0  0  0  0  0  0
  -13.0280  -14.2630   10.4410 C   0  0  2  0  0  0  0  0  0  0  0  0
  -14.1470  -15.3110   10.4180 C   0  0  0  0  0  0  0  0  0  0  0  0
  -14.0860  -16.3030   11.1450 O   0  0  0  0  0  0  0  0  0  0  0  0
  -11.8390  -14.8080    9.6680 C   0  0  0  0  0  0  0  0  0  0  0  0
  -11.8920  -14.2400   12.0310 H   0  0  0  0  0  0  0  0  0  0  0  0
  -13.3640  -13.4590   10.0140 H   0  0  0  0  0  0  0  0  0  0  0  0
  -12.1090  -14.9780    8.7520 H   0  0  0  0  0  0  0  0  0  0  0  0
  -11.1230  -14.1540    9.6860 H   0  0  0  0  0  0  0  0  0  0  0  0
  -11.5440  -15.6330   10.0840 H   0  0  0  0  0  0  0  0  0  0  0  0
  -15.1430  -15.0570    9.5650 N   0  0  0  0  0  0  0  0  0  0  0  0
  -16.2040  -16.0070    9.2390 C   0  0  1  0  0  0  0  0  0  0  0  0
  -17.5380  -15.6820    9.9880 C   0  0  1  0  0  0  0  0  0  0  0  0
  -17.4000  -15.9020   11.4960 C   0  0  0  0  0  0  0  0  0  0  0  0
  -17.8000  -14.3240    9.6320 O   0  0  0  0  0  0  0  0  0  0  0  0
  -19.2620  -13.7390    9.9950 P   0  0  0  0  0  0  0  0  0  0  0  0
  -19.3200  -12.4720    9.0260 O   0  0  0  0  0  0  0  0  0  0  0  0
  -19.2460  -13.2990   11.4060 O   0  0  0  0  0  0  0  0  0  0  0  0
  -20.3730  -14.7660    9.6290 O   0  0  0  0  0  0  0  0  0  0  0  0
  -16.4240  -15.9870    7.7390 C   0  0  0  0  0  0  0  0  0  0  0  0
  -16.0700  -15.0060    7.0400 O   0  0  0  0  0  0  0  0  0  0  0  0
  -16.9950  -17.0640    7.2200 N   0  0  0  0  0  0  0  0  0  0  0  0
  -17.2750  -17.1380    5.7880 C   0  0  2  0  0  0  0  0  0  0  0  0
  -18.7090  -17.4970    5.4740 C   0  0  0  0  0  0  0  0  0  0  0  0
  -19.5060  -17.8940    6.3370 O   0  0  0  0  0  0  0  0  0  0  0  0
  -16.3540  -18.1580    5.0680 C   0  0  0  0  0  0  0  0  0  0  0  0
  -14.9400  -17.7450    5.2020 C   0  0  0  0  0  0  0  0  0  0  0  0
  -16.6080  -19.5720    5.5860 C   0  0  0  0  0  0  0  0  0  0  0  0
  -19.0900  -17.3990    4.2760 O   0  0  0  0  0  0  0  0  0  0  0  0
  -17.2300  -17.7590    7.6690 H   0  0  0  0  0  0  0  0  0  0  0  0
  -17.1090  -16.2430    5.4540 H   0  0  0  0  0  0  0  0  0  0  0  0
  -16.5580  -18.1740    4.1200 H   0  0  0  0  0  0  0  0  0  0  0  0
  -14.9050  -16.8600    5.5990 H   0  0  0  0  0  0  0  0  0  0  0  0
  -14.4770  -18.3800    5.7700 H   0  0  0  0  0  0  0  0  0  0  0  0
  -14.5310  -17.7290    4.3220 H   0  0  0  0  0  0  0  0  0  0  0  0
  -15.9300  -20.1660    5.2270 H   0  0  0  0  0  0  0  0  0  0  0  0
  -16.5630  -19.5660    6.5550 H   0  0  0  0  0  0  0  0  0  0  0  0
  -17.4880  -19.8600    5.2970 H   0  0  0  0  0  0  0  0  0  0  0  0
  2  1  1  0
  3  2  1  0
  4  3  2  0
  5  2  1  0
  6  5  1  0
  7  6  2  0
  8  6  1  0
  9  7  1  0
 10  8  2  0
 11  9  2  0
 11 10  1  0
  2 12  1  1
 13  5  1  0
 14  5  1  0
 15  7  1  0
 16  8  1  0
 17  9  1  0
 18 10  1  0
 19 11  1  0
 20  3  1  0
 21 20  1  0
 22 21  1  0
 23 22  2  0
 24 21  1  0
 25 24  1  0
 26 25  1  0
 26 20  1  0
 21 27  1  6
 28 24  1  0
 29 24  1  0
 30 25  1  0
 31 25  1  0
 32 26  1  0
 33 26  1  0
 34 22  1  0
 35 34  1  0
 36 35  1  0
 37 36  2  0
 38 35  1  0
 39 34  1  0
 35 40  1  6
 41 38  1  0
 42 38  1  0
 43 38  1  0
 44 36  1  0
 45 44  1  6
 46 45  1  0
 46 47  1  1
 48 46  1  0
 49 48  1  0
 50 49  1  0
 51 49  1  0
 52 49  1  0
 53 45  1  0
 54 53  1  0
 55 53  1  0
 56 55  1  0
 57 56  1  0
 58 57  2  0
 59 56  1  0
 60 59  1  0
 61 59  1  0
 62 57  1  0
 63 55  1  0
 56 64  1  6
 65 59  1  0
 66 60  1  0
 67 60  1  0
 68 60  1  0
 69 61  1  0
 70 61  1  0
 71 61  1  0
M  END
$$$$
8C0K
     RDKit          3D

 71 72  0  0  0  0  0  0  0  0999 V2000
   12.7170    8.0050   14.7370 N   0  0  0  0  0  0  0  0  0  0  0  0
   13.6510    9.1310   14.6570 C   0  0  2  0  0  0  0  0  0  0  0  0
   13.0100   10.3450   13.9800 C   0  0  0  0  0  0  0  0  0  0  0  0
   12.1980   10.2020   13.0680 O   0  0  0  0  0  0  0  0  0  0  0  0
   14.9460    8.6920   13.9550 C   0  0  0  0  0  0  0  0  0  0  0  0
   14.7630    8.2840   12.5160 C   0  0  0  0  0  0  0  0  0  0  0  0
   14.8330    9.2260   11.5010 C   0  0  0  0  0  0  0  0  0  0  0  0
   14.5330    6.9570   12.1750 C   0  0  0  0  0  0  0  0  0  0  0  0
   14.6680    8.8560   10.1770 C   0  0  0  0  0  0  0  0  0  0  0  0
   14.3640    6.5840   10.8490 C   0  0  0  0  0  0  0  0  0  0  0  0
   14.4350    7.5320    9.8530 C   0  0  0  0  0  0  0  0  0  0  0  0
   13.8940    9.4190   15.5510 H   0  0  0  0  0  0  0  0  0  0  0  0
   15.5740    9.4310   13.9730 H   0  0  0  0  0  0  0  0  0  0  0  0
   15.3140    7.9320   14.4310 H   0  0  0  0  0  0  0  0  0  0  0  0
   14.9930   10.1170   11.7130 H   0  0  0  0  0  0  0  0  0  0  0  0
   14.4910    6.3110   12.8420 H   0  0  0  0  0  0  0  0  0  0  0  0
   14.7150    9.4980    9.5060 H   0  0  0  0  0  0  0  0  0  0  0  0
   14.2040    5.6940   10.6330 H   0  0  0  0  0  0  0  0  0  0  0  0
   14.3260    7.2830    8.9640 H   0  0  0  0  0  0  0  0  0  0  0  0
   13.3530   11.5440   14.4460 N   0  0  0  0  0  0  0  0  0  0  0  0
   12.7460   12.7520   13.8800 C   0  0  2  0  0  0  0  0  0  0  0  0
   13.3230   13.0740   12.5090 C   0  0  0  0  0  0  0  0  0  0  0  0
   14.3740   12.5850   12.1050 O   0  0  0  0  0  0  0  0  0  0  0  0
   13.1000   13.8300   14.9020 C   0  0  0  0  0  0  0  0  0  0  0  0
   14.3870   13.3660   15.5040 C   0  0  0  0  0  0  0  0  0  0  0  0
   14.3420   11.8590   15.4950 C   0  0  0  0  0  0  0  0  0  0  0  0
   11.7820   12.6660   13.8150 H   0  0  0  0  0  0  0  0  0  0  0  0
   13.2110   14.6850   14.4590 H   0  0  0  0  0  0  0  0  0  0  0  0
   12.4040   13.8920   15.5740 H   0  0  0  0  0  0  0  0  0  0  0  0
   15.1300   13.6880   14.9700 H   0  0  0  0  0  0  0  0  0  0  0  0
   14.4620   13.7010   16.4110 H   0  0  0  0  0  0  0  0  0  0  0  0
   15.2100   11.4900   15.2710 H   0  0  0  0  0  0  0  0  0  0  0  0
   14.0490   11.5190   16.3560 H   0  0  0  0  0  0  0  0  0  0  0  0
   12.6020   13.8990   11.7660 N   0  0  0  0  0  0  0  0  0  0  0  0
   13.0130   14.2360   10.4170 C   0  0  2  0  0  0  0  0  0  0  0  0
   14.1300   15.2790   10.3970 C   0  0  0  0  0  0  0  0  0  0  0  0
   14.0710   16.2810   11.1430 O   0  0  0  0  0  0  0  0  0  0  0  0
   11.8150   14.7920    9.6180 C   0  0  0  0  0  0  0  0  0  0  0  0
   11.8720   14.2760   12.0220 H   0  0  0  0  0  0  0  0  0  0  0  0
   13.3410   13.4230   10.0020 H   0  0  0  0  0  0  0  0  0  0  0  0
   12.1090   15.0110    8.7200 H   0  0  0  0  0  0  0  0  0  0  0  0
   11.1190   14.1170    9.5830 H   0  0  0  0  0  0  0  0  0  0  0  0
   11.4820   15.5880   10.0610 H   0  0  0  0  0  0  0  0  0  0  0  0
   15.1610   15.0160    9.5840 N   0  0  0  0  0  0  0  0  0  0  0  0
   16.2030   15.9940    9.2790 C   0  0  1  0  0  0  0  0  0  0  0  0
   17.5340   15.6710   10.0080 C   0  0  1  0  0  0  0  0  0  0  0  0
   17.3360   15.8740   11.5170 C   0  0  0  0  0  0  0  0  0  0  0  0
   17.8170   14.3030    9.6350 O   0  0  0  0  0  0  0  0  0  0  0  0
   19.2960   13.7250    9.9820 P   0  0  0  0  0  0  0  0  0  0  0  0
   19.3700   12.4540    9.0240 O   0  0  0  0  0  0  0  0  0  0  0  0
   19.3320   13.3400   11.4070 O   0  0  0  0  0  0  0  0  0  0  0  0
   20.3620   14.7880    9.6480 O   0  0  0  0  0  0  0  0  0  0  0  0
   16.4360   16.0350    7.7760 C   0  0  0  0  0  0  0  0  0  0  0  0
   16.0880   15.0780    7.0650 O   0  0  0  0  0  0  0  0  0  0  0  0
   17.0010   17.1230    7.2790 N   0  0  0  0  0  0  0  0  0  0  0  0
   17.2990   17.1930    5.8530 C   0  0  2  0  0  0  0  0  0  0  0  0
   18.7320   17.5470    5.5570 C   0  0  0  0  0  0  0  0  0  0  0  0
   19.4820   17.9570    6.4350 O   0  0  0  0  0  0  0  0  0  0  0  0
   16.4000   18.2090    5.1180 C   0  0  0  0  0  0  0  0  0  0  0  0
   14.9840   17.7920    5.1930 C   0  0  0  0  0  0  0  0  0  0  0  0
   16.6310   19.6080    5.6810 C   0  0  0  0  0  0  0  0  0  0  0  0
   19.1590   17.4720    4.3890 O   0  0  0  0  0  0  0  0  0  0  0  0
   17.2170   17.8200    7.7330 H   0  0  0  0  0  0  0  0  0  0  0  0
   17.1320   16.2960    5.5230 H   0  0  0  0  0  0  0  0  0  0  0  0
   16.6310   18.2370    4.1770 H   0  0  0  0  0  0  0  0  0  0  0  0
   14.4420   18.4280    4.7020 H   0  0  0  0  0  0  0  0  0  0  0  0
   14.8940   16.9090    4.8020 H   0  0  0  0  0  0  0  0  0  0  0  0
   14.7100   17.7710    6.1230 H   0  0  0  0  0  0  0  0  0  0  0  0
   15.9390   20.2000    5.3480 H   0  0  0  0  0  0  0  0  0  0  0  0
   16.5950   19.5690    6.6490 H   0  0  0  0  0  0  0  0  0  0  0  0
   17.5030   19.9230    5.3940 H   0  0  0  0  0  0  0  0  0  0  0  0
  2  1  1  0
  3  2  1  0
  4  3  2  0
  5  2  1  0
  6  5  1  0
  7  6  2  0
  8  6  1  0
  9  7  1  0
 10  8  2  0
 11 10  1  0
 11  9  2  0
  2 12  1  1
 13  5  1  0
 14  5  1  0
 15  7  1  0
 16  8  1  0
 17  9  1  0
 18 10  1  0
 19 11  1  0
 20  3  1  0
 21 20  1  0
 22 21  1  0
 23 22  2  0
 24 21  1  0
 25 24  1  0
 26 25  1  0
 26 20  1  0
 21 27  1  6
 28 24  1  0
 29 24  1  0
 30 25  1  0
 31 25  1  0
 32 26  1  0
 33 26  1  0
 34 22  1  0
 35 34  1  0
 36 35  1  0
 37 36  2  0
 38 35  1  0
 39 34  1  0
 35 40  1  6
 41 38  1  0
 42 38  1  0
 43 38  1  0
 44 36  1  0
 45 44  1  6
 46 45  1  0
 46 47  1  1
 48 46  1  0
 49 48  1  0
 50 49  1  0
 51 49  1  0
 52 49  1  0
 53 45  1  0
 54 53  1  0
 55 53  1  0
 56 55  1  0
 57 56  1  0
 58 57  2  0
 59 56  1  0
 60 59  1  0
 61 59  1  0
 62 57  1  0
 63 55  1  0
 56 64  1  6
 65 59  1  0
 66 60  1  0
 67 60  1  0
 68 60  1  0
 69 61  1  0
 70 61  1  0
 71 61  1  0
M  END
$$$$
2QGW
     RDKit          3D

 79 79  0  0  0  0  0  0  0  0999 V2000
   29.6160   18.3710    5.4550 N   0  0  0  0  0  0  0  0  0  0  0  0
   28.8030   17.1370    5.6400 C   0  0  2  0  0  0  0  0  0  0  0  0
   28.2920   16.6160    4.2940 C   0  0  0  0  0  0  0  0  0  0  0  0
   27.5820   17.3120    3.5820 O   0  0  0  0  0  0  0  0  0  0  0  0
   27.6530   17.4000    6.6250 C   0  0  0  0  0  0  0  0  0  0  0  0
   26.4510   16.4310    6.5350 C   0  0  0  0  0  0  0  0  0  0  0  0
   25.9480   15.9450    7.9160 C   0  0  0  0  0  0  0  0  0  0  0  0
   25.7500   17.0800    8.9290 C   0  0  0  0  0  0  0  0  0  0  0  0
   25.1330   16.5910   10.2020 N   0  0  0  0  0  0  0  0  0  0  0  0
   28.6650   15.3760    3.9840 N   0  0  0  0  0  0  0  0  0  0  0  0
   28.3840   14.7360    2.6990 C   0  0  2  0  0  0  0  0  0  0  0  0
   26.8820   14.6380    2.4330 C   0  0  0  0  0  0  0  0  0  0  0  0
   26.4180   14.9930    1.3430 O   0  0  0  0  0  0  0  0  0  0  0  0
   28.9990   13.3100    2.6480 C   0  0  2  0  0  0  0  0  0  0  0  0
   30.5340   13.3750    2.7540 C   0  0  0  0  0  0  0  0  0  0  0  0
   28.5920   12.5980    1.3680 C   0  0  0  0  0  0  0  0  0  0  0  0
   31.1870   12.0220    2.8980 C   0  0  0  0  0  0  0  0  0  0  0  0
   26.1340   14.1630    3.4320 N   0  0  0  0  0  0  0  0  0  0  0  0
   24.6880   13.9620    3.3000 C   0  0  2  0  0  0  0  0  0  0  0  0
   23.9970   15.2700    2.9000 C   0  0  0  0  0  0  0  0  0  0  0  0
   23.1720   15.3140    1.9860 O   0  0  0  0  0  0  0  0  0  0  0  0
   24.1070   13.4220    4.6140 C   0  0  0  0  0  0  0  0  0  0  0  0
   22.6010   13.2360    4.7270 C   0  0  0  0  0  0  0  0  0  0  0  0
   22.0360   12.4690    3.5240 C   0  0  0  0  0  0  0  0  0  0  0  0
   22.2960   12.5260    6.0310 C   0  0  0  0  0  0  0  0  0  0  0  0
   24.3750   16.3330    3.5860 N   0  0  0  0  0  0  0  0  0  0  0  0
   23.8930   17.6690    3.2910 C   0  0  2  0  0  0  0  0  0  0  0  0
   24.1100   18.0970    1.8190 C   0  0  0  0  0  0  0  0  0  0  0  0
   23.1810   18.6270    1.1820 O   0  0  0  0  0  0  0  0  0  0  0  0
   24.5870   18.6570    4.2200 C   0  0  0  0  0  0  0  0  0  0  0  0
   24.0560   20.0380    4.1080 C   0  0  0  0  0  0  0  0  0  0  0  0
   22.9430   20.4560    4.8010 N   0  0  0  0  0  0  0  0  0  0  0  0
   24.4530   21.0880    3.3570 C   0  0  0  0  0  0  0  0  0  0  0  0
   22.6870   21.7130    4.4970 C   0  0  0  0  0  0  0  0  0  0  0  0
   23.5880   22.1230    3.6230 N   0  0  0  0  0  0  0  0  0  0  0  0
   25.3270   17.8680    1.3070 N   0  0  0  0  0  0  0  0  0  0  0  0
   25.6530   18.0700   -0.1200 C   0  0  2  0  0  0  0  0  0  0  0  0
   24.8110   17.1860   -1.0570 C   0  0  0  0  0  0  0  0  0  0  0  0
   24.1830   17.7000   -1.9860 O   0  0  0  0  0  0  0  0  0  0  0  0
   27.1610   17.8270   -0.3900 C   0  0  0  0  0  0  0  0  0  0  0  0
   27.6620   18.3530   -1.7580 C   0  0  0  0  0  0  0  0  0  0  0  0
   29.1300   17.9750   -2.0620 C   0  0  0  0  0  0  0  0  0  0  0  0
   29.3130   16.5270   -2.1910 N   0  0  0  0  0  0  0  0  0  0  0  0
   29.9460   15.7360   -1.3170 C   0  0  0  0  0  0  0  0  0  0  0  0
   30.0290   14.4320   -1.5570 N   0  0  0  0  0  0  0  0  0  0  0  0
   30.5020   16.2190   -0.2080 N   0  0  0  0  0  0  0  0  0  0  0  0
   24.8000   15.8690   -0.8140 N   0  0  0  0  0  0  0  0  0  0  0  0
   24.0280   14.9160   -1.6480 C   0  0  2  0  0  0  0  0  0  0  0  0
   22.5430   15.3270   -1.7740 C   0  0  0  0  0  0  0  0  0  0  0  0
   21.9260   15.1930   -2.8300 O   0  0  0  0  0  0  0  0  0  0  0  0
   24.1500   13.4770   -1.0970 C   0  0  0  0  0  0  0  0  0  0  0  0
   25.1420   12.4860   -1.7270 C   0  0  0  0  0  0  0  0  0  0  0  0
   26.3660   13.1750   -2.3330 C   0  0  0  0  0  0  0  0  0  0  0  0
   25.5720   11.4280   -0.7090 C   0  0  0  0  0  0  0  0  0  0  0  0
   21.9790   15.8440   -0.6960 N   0  0  0  0  0  0  0  0  0  0  0  0
   20.5850   16.2870   -0.7030 C   0  0  2  0  0  0  0  0  0  0  0  0
   20.3290   17.5170   -1.5800 C   0  0  0  0  0  0  0  0  0  0  0  0
   19.1980   17.7410   -1.9990 O   0  0  0  0  0  0  0  0  0  0  0  0
   20.0970   16.5390    0.7230 C   0  0  0  0  0  0  0  0  0  0  0  0
   19.7160   15.2630    1.4870 C   0  0  0  0  0  0  0  0  0  0  0  0
   19.5250   15.5330    2.9790 C   0  0  0  0  0  0  0  0  0  0  0  0
   18.4730   14.6360    0.8770 C   0  0  0  0  0  0  0  0  0  0  0  0
   21.3670   18.3090   -1.8500 N   0  0  0  0  0  0  0  0  0  0  0  0
   21.2320   19.4980   -2.6970 C   0  0  2  0  0  0  0  0  0  0  0  0
   21.2370   19.1940   -4.1980 C   0  0  0  0  0  0  0  0  0  0  0  0
   20.7190   19.9780   -4.9880 O   0  0  0  0  0  0  0  0  0  0  0  0
   22.3200   20.5200   -2.3470 C   0  0  0  0  0  0  0  0  0  0  0  0
   22.1600   21.0190   -0.9240 C   0  0  0  0  0  0  0  0  0  0  0  0
   23.1770   22.0260   -0.5190 C   0  0  0  0  0  0  0  0  0  0  0  0
   23.1470   23.1650   -0.9760 O   0  0  0  0  0  0  0  0  0  0  0  0
   24.0730   21.6320    0.3720 N   0  0  0  0  0  0  0  0  0  0  0  0
   21.8100   18.0580   -4.5880 N   0  0  0  0  0  0  0  0  0  0  0  0
   21.9380   17.6880   -6.0090 C   0  0  2  0  0  0  0  0  0  0  0  0
   20.6130   17.7190   -6.7640 C   0  0  0  0  0  0  0  0  0  0  0  0
   20.5980   17.8740   -8.0160 O   0  0  0  0  0  0  0  0  0  0  0  0
   22.5570   16.2920   -6.1410 C   0  0  0  0  0  0  0  0  0  0  0  0
   24.0340   16.2710   -5.7660 C   0  0  0  0  0  0  0  0  0  0  0  0
   24.6550   15.1610   -5.8200 O   0  0  0  0  0  0  0  0  0  0  0  0
   24.5810   17.3680   -5.4190 O   0  0  0  0  0  0  0  0  0  0  0  0
  2  1  1  6
  3  2  1  0
  4  3  2  0
  5  2  1  0
  6  5  1  0
  7  6  1  0
  8  7  1  0
  9  8  1  0
 10  3  1  0
 11 10  1  1
 12 11  1  0
 13 12  2  0
 14 11  1  0
 15 14  1  0
 14 16  1  6
 17 15  1  0
 18 12  1  0
 19 18  1  0
 20 19  1  0
 21 20  2  0
 19 22  1  1
 23 22  1  0
 24 23  1  0
 25 23  1  0
 26 20  1  0
 27 26  1  0
 28 27  1  0
 29 28  2  0
 27 30  1  1
 31 30  1  0
 32 31  1  0
 33 31  2  0
 34 32  2  0
 35 34  1  0
 35 33  1  0
 36 28  1  0
 37 36  1  0
 38 37  1  0
 39 38  2  0
 37 40  1  1
 41 40  1  0
 42 41  1  0
 43 42  1  0
 44 43  1  0
 45 44  1  0
 46 44  2  0
 47 38  1  0
 48 47  1  0
 49 48  1  0
 50 49  2  0
 48 51  1  1
 52 51  1  0
 53 52  1  0
 54 52  1  0
 55 49  1  0
 56 55  1  0
 57 56  1  0
 58 57  2  0
 56 59  1  1
 60 59  1  0
 61 60  1  0
 62 60  1  0
 63 57  1  0
 64 63  1  0
 65 64  1  0
 66 65  2  0
 64 67  1  6
 68 67  1  0
 69 68  1  0
 70 69  2  0
 71 69  1  0
 72 65  1  0
 73 72  1  0
 74 73  1  0
 75 74  2  0
 73 76  1  1
 77 76  1  0
 78 77  2  0
 79 77  1  0
M  END
$$$$
5AAU
     RDKit          3D

 25 28  0  0  0  0  0  0  0  0999 V2000
   22.6270   -9.3390   15.0240 C   0  0  0  0  0  0  0  0  0  0  0  0
   23.3300  -10.5450   14.7360 C   0  0  0  0  0  0  0  0  0  0  0  0
   22.7820  -11.4930   13.9180 C   0  0  0  0  0  0  0  0  0  0  0  0
   21.4970  -11.2100   13.3640 C   0  0  0  0  0  0  0  0  0  0  0  0
   20.7730   -9.9900   13.6630 C   0  0  0  0  0  0  0  0  0  0  0  0
   21.3290   -9.0190   14.5310 C   0  0  0  0  0  0  0  0  0  0  0  0
   19.5160  -10.0880   12.9420 C   0  0  2  0  0  0  0  0  0  0  0  0
   19.5670  -11.2500   12.2880 C   0  0  0  0  0  0  0  0  0  0  0  0
   20.7170  -11.9240   12.5230 N   0  0  0  0  0  0  0  0  0  0  0  0
   18.4300  -11.6950   11.4330 C   0  0  2  0  0  0  0  0  0  0  0  0
   17.3070  -10.7040   11.5510 N   0  0  0  0  0  0  0  0  0  0  0  0
   17.6810   -9.2970   11.5000 C   0  0  0  0  0  0  0  0  0  0  0  0
   18.3480   -9.0800   12.8400 C   0  0  0  0  0  0  0  0  0  0  0  0
   16.3300  -10.8160   10.4850 C   0  0  0  0  0  0  0  0  0  0  0  0
   14.8890  -10.4490   10.9620 C   0  0  0  0  0  0  0  0  0  0  0  0
   14.0410  -10.6680    9.6870 C   0  0  0  0  0  0  0  0  0  0  0  0
   14.0820  -11.6840    9.0230 O   0  0  0  0  0  0  0  0  0  0  0  0
   13.1830   -9.7320    9.2790 O   0  0  0  0  0  0  0  0  0  0  0  0
   18.0040  -13.0710   11.9180 C   0  0  0  0  0  0  0  0  0  0  0  0
   17.9780  -14.0810   10.9880 C   0  0  0  0  0  0  0  0  0  0  0  0
   17.5420  -15.3190   11.4510 C   0  0  0  0  0  0  0  0  0  0  0  0
   17.2250  -15.4970   12.8130 C   0  0  0  0  0  0  0  0  0  0  0  0
   17.2730  -14.4730   13.7750 C   0  0  0  0  0  0  0  0  0  0  0  0
   17.6500  -13.2470   13.3340 C   0  0  0  0  0  0  0  0  0  0  0  0
   16.6990  -17.0730   13.3760 Cl  0  0  0  0  0  0  0  0  0  0  0  0
  2  1  1  0
  3  2  1  0
  4  3  1  0
  5  4  1  0
  6  5  1  0
  6  1  1  0
  7  5  1  0
  8  7  1  0
  9  8  1  0
  9  4  1  0
 10  8  1  0
 11 10  1  0
 12 11  1  0
 13 12  1  0
  7 13  1  6
 14 11  1  0
 15 14  1  0
 16 15  1  0
 17 16  1  0
 18 16  1  0
 10 19  1  1
 20 19  1  0
 21 20  1  0
 22 21  1  0
 23 22  1  0
 24 23  1  0
 24 19  1  0
 25 22  1  0
M  END
$$$$
8AQ1
     RDKit          3D

 42 43  0  0  0  0  0  0  0  0999 V2000
  -12.8800   -7.8710   14.7690 N   0  0  0  0  0  0  0  0  0  0  0  0
  -13.7960   -9.0520   14.7800 C   0  0  2  0  0  0  0  0  0  0  0  0
  -13.1160  -10.2760   14.1670 C   0  0  0  0  0  0  0  0  0  0  0  0
  -12.2630  -10.1520   13.2870 O   0  0  0  0  0  0  0  0  0  0  0  0
  -15.1260   -8.7340   14.0610 C   0  0  0  0  0  0  0  0  0  0  0  0
  -14.9660   -8.0990   12.7020 C   0  0  0  0  0  0  0  0  0  0  0  0
  -14.7840   -8.8820   11.5570 C   0  0  0  0  0  0  0  0  0  0  0  0
  -15.0120   -6.7100   12.5560 C   0  0  0  0  0  0  0  0  0  0  0  0
  -14.6400   -8.2880   10.3070 C   0  0  0  0  0  0  0  0  0  0  0  0
  -14.8640   -6.1160   11.3090 C   0  0  0  0  0  0  0  0  0  0  0  0
  -14.6860   -6.9050   10.1800 C   0  0  0  0  0  0  0  0  0  0  0  0
  -13.4660  -11.5040   14.6010 N   0  0  0  0  0  0  0  0  0  0  0  0
  -12.8740  -12.6960   14.0020 C   0  0  2  0  0  0  0  0  0  0  0  0
  -13.4500  -13.0020   12.6150 C   0  0  0  0  0  0  0  0  0  0  0  0
  -14.5050  -12.5040   12.2350 O   0  0  0  0  0  0  0  0  0  0  0  0
  -13.2310  -13.7750   15.0240 C   0  0  0  0  0  0  0  0  0  0  0  0
  -14.5840  -13.3380   15.5490 C   0  0  0  0  0  0  0  0  0  0  0  0
  -14.4820  -11.8290   15.6240 C   0  0  0  0  0  0  0  0  0  0  0  0
  -12.7430  -13.8240   11.8690 N   0  0  0  0  0  0  0  0  0  0  0  0
  -13.1420  -14.1960   10.5390 C   0  0  2  0  0  0  0  0  0  0  0  0
  -14.2400  -15.2500   10.4730 C   0  0  0  0  0  0  0  0  0  0  0  0
  -14.1920  -16.2400   11.1940 O   0  0  0  0  0  0  0  0  0  0  0  0
  -11.9520  -14.7080    9.7290 C   0  0  0  0  0  0  0  0  0  0  0  0
  -15.2370  -14.9940    9.6270 N   0  0  0  0  0  0  0  0  0  0  0  0
  -16.3090  -15.9400    9.2660 C   0  0  1  0  0  0  0  0  0  0  0  0
  -17.6150  -15.6440   10.0260 C   0  0  1  0  0  0  0  0  0  0  0  0
  -17.4790  -15.8130   11.5240 C   0  0  0  0  0  0  0  0  0  0  0  0
  -17.9460  -14.2630    9.6770 O   0  0  0  0  0  0  0  0  0  0  0  0
  -19.3840  -13.6050   10.0380 P   0  0  0  0  0  0  0  0  0  0  0  0
  -19.4100  -12.3780    9.1260 O   0  0  0  0  0  0  0  0  0  0  0  0
  -19.3920  -13.2530   11.4760 O   0  0  0  0  0  0  0  0  0  0  0  0
  -20.4220  -14.6140    9.6860 O   0  0  0  0  0  0  0  0  0  0  0  0
  -16.4970  -15.9200    7.7540 C   0  0  0  0  0  0  0  0  0  0  0  0
  -16.0670  -14.9340    7.1170 O   0  0  0  0  0  0  0  0  0  0  0  0
  -17.0820  -16.9740    7.2120 N   0  0  0  0  0  0  0  0  0  0  0  0
  -17.3730  -17.0160    5.8010 C   0  0  2  0  0  0  0  0  0  0  0  0
  -18.7980  -17.3170    5.5070 C   0  0  0  0  0  0  0  0  0  0  0  0
  -19.5700  -17.8350    6.3390 O   0  0  0  0  0  0  0  0  0  0  0  0
  -16.5030  -18.0400    5.0720 C   0  0  0  0  0  0  0  0  0  0  0  0
  -15.0330  -17.7140    5.2170 C   0  0  0  0  0  0  0  0  0  0  0  0
  -16.7850  -19.4670    5.5430 C   0  0  0  0  0  0  0  0  0  0  0  0
  -19.2220  -17.0310    4.3600 O   0  0  0  0  0  0  0  0  0  0  0  0
  2  1  1  6
  3  2  1  0
  4  3  2  0
  5  2  1  0
  6  5  1  0
  7  6  2  0
  8  6  1  0
  9  7  1  0
 10  8  2  0
 11  9  2  0
 11 10  1  0
 12  3  1  0
 13 12  1  0
 13 14  1  6
 15 14  2  0
 16 13  1  0
 17 16  1  0
 18 17  1  0
 18 12  1  0
 19 14  1  0
 20 19  1  0
 21 20  1  0
 22 21  2  0
 20 23  1  6
 24 21  1  0
 25 24  1  6
 26 25  1  0
 26 27  1  1
 28 26  1  0
 29 28  1  0
 30 29  1  0
 31 29  1  0
 32 29  1  0
 33 25  1  0
 34 33  1  0
 35 33  1  0
 36 35  1  1
 37 36  1  0
 38 37  2  0
 39 36  1  0
 40 39  1  0
 41 39  1  0
 42 37  1  0
M  END
$$$$
8AFN
     RDKit          3D

 71 72  0  0  0  0  0  0  0  0999 V2000
   12.6100    7.9420   14.9440 N   0  0  0  0  0  0  0  0  0  0  0  0
   13.5750    9.0330   14.8150 C   0  0  2  0  0  0  0  0  0  0  0  0
   12.9420   10.2430   14.1190 C   0  0  0  0  0  0  0  0  0  0  0  0
   12.0710   10.0970   13.2570 O   0  0  0  0  0  0  0  0  0  0  0  0
   14.8380    8.5360   14.0990 C   0  0  0  0  0  0  0  0  0  0  0  0
   15.6700    7.5870   14.9410 C   0  0  0  0  0  0  0  0  0  0  0  0
   16.4060    8.0660   16.0170 C   0  0  0  0  0  0  0  0  0  0  0  0
   15.7110    6.2260   14.6650 C   0  0  0  0  0  0  0  0  0  0  0  0
   17.1720    7.2100   16.7980 C   0  0  0  0  0  0  0  0  0  0  0  0
   16.4740    5.3630   15.4430 C   0  0  0  0  0  0  0  0  0  0  0  0
   17.2010    5.8560   16.5120 C   0  0  0  0  0  0  0  0  0  0  0  0
   13.8570    9.3400   15.6910 H   0  0  0  0  0  0  0  0  0  0  0  0
   14.5760    8.0660   13.2920 H   0  0  0  0  0  0  0  0  0  0  0  0
   15.3920    9.2990   13.8740 H   0  0  0  0  0  0  0  0  0  0  0  0
   16.3860    8.9740   16.2180 H   0  0  0  0  0  0  0  0  0  0  0  0
   15.2220    5.8880   13.9500 H   0  0  0  0  0  0  0  0  0  0  0  0
   17.6640    7.5470   17.5110 H   0  0  0  0  0  0  0  0  0  0  0  0
   16.4950    4.4550   15.2450 H   0  0  0  0  0  0  0  0  0  0  0  0
   17.7070    5.2800   17.0380 H   0  0  0  0  0  0  0  0  0  0  0  0
   13.3550   11.4410   14.5170 N   0  0  0  0  0  0  0  0  0  0  0  0
   12.7700   12.6520   13.9370 C   0  0  2  0  0  0  0  0  0  0  0  0
   13.3490   12.9630   12.5660 C   0  0  0  0  0  0  0  0  0  0  0  0
   14.4170   12.4990   12.1700 O   0  0  0  0  0  0  0  0  0  0  0  0
   13.1570   13.7340   14.9470 C   0  0  0  0  0  0  0  0  0  0  0  0
   14.4770   13.2760   15.4790 C   0  0  0  0  0  0  0  0  0  0  0  0
   14.3840   11.7590   15.5270 C   0  0  0  0  0  0  0  0  0  0  0  0
   11.8050   12.5780   13.8750 H   0  0  0  0  0  0  0  0  0  0  0  0
   13.2360   14.5930   14.5020 H   0  0  0  0  0  0  0  0  0  0  0  0
   12.4930   13.7870   15.6520 H   0  0  0  0  0  0  0  0  0  0  0  0
   15.1890   13.5600   14.8840 H   0  0  0  0  0  0  0  0  0  0  0  0
   14.6200   13.6420   16.3660 H   0  0  0  0  0  0  0  0  0  0  0  0
   15.2340   11.3550   15.2910 H   0  0  0  0  0  0  0  0  0  0  0  0
   14.1070   11.4590   16.4070 H   0  0  0  0  0  0  0  0  0  0  0  0
   12.6160   13.7840   11.8340 N   0  0  0  0  0  0  0  0  0  0  0  0
   13.0170   14.1660   10.5080 C   0  0  2  0  0  0  0  0  0  0  0  0
   14.1290   15.2080   10.4660 C   0  0  0  0  0  0  0  0  0  0  0  0
   14.0850   16.1950   11.1920 O   0  0  0  0  0  0  0  0  0  0  0  0
   11.8150   14.7010    9.7480 C   0  0  0  0  0  0  0  0  0  0  0  0
   11.8740   14.1340   12.0930 H   0  0  0  0  0  0  0  0  0  0  0  0
   13.3690   13.3680   10.0820 H   0  0  0  0  0  0  0  0  0  0  0  0
   12.0940   14.9560    8.8550 H   0  0  0  0  0  0  0  0  0  0  0  0
   11.1380   14.0080    9.6980 H   0  0  0  0  0  0  0  0  0  0  0  0
   11.4630   15.4730   10.2180 H   0  0  0  0  0  0  0  0  0  0  0  0
   15.1050   14.9750    9.5850 N   0  0  0  0  0  0  0  0  0  0  0  0
   16.1530   15.9380    9.2520 C   0  0  1  0  0  0  0  0  0  0  0  0
   17.4810   15.5980    9.9660 C   0  0  1  0  0  0  0  0  0  0  0  0
   17.3570   15.7440   11.4900 C   0  0  0  0  0  0  0  0  0  0  0  0
   17.8140   14.2310    9.6070 O   0  0  0  0  0  0  0  0  0  0  0  0
   19.2560   13.6070    9.9630 P   0  0  0  0  0  0  0  0  0  0  0  0
   19.3260   12.3390    9.0480 O   0  0  0  0  0  0  0  0  0  0  0  0
   19.2720   13.2360   11.3650 O   0  0  0  0  0  0  0  0  0  0  0  0
   20.3630   14.5940    9.5930 O   0  0  0  0  0  0  0  0  0  0  0  0
   16.3410   15.9040    7.7430 C   0  0  0  0  0  0  0  0  0  0  0  0
   15.9540   14.9180    7.0850 O   0  0  0  0  0  0  0  0  0  0  0  0
   16.9130   16.9610    7.1930 N   0  0  0  0  0  0  0  0  0  0  0  0
   17.1400   17.0360    5.7600 C   0  0  2  0  0  0  0  0  0  0  0  0
   18.5640   17.4050    5.4360 C   0  0  0  0  0  0  0  0  0  0  0  0
   19.3580   17.8340    6.2880 O   0  0  0  0  0  0  0  0  0  0  0  0
   16.1990   18.0380    5.0460 C   0  0  0  0  0  0  0  0  0  0  0  0
   14.7700   17.6460    5.2250 C   0  0  0  0  0  0  0  0  0  0  0  0
   16.4580   19.4790    5.5410 C   0  0  0  0  0  0  0  0  0  0  0  0
   18.9620   17.2770    4.2660 O   0  0  0  0  0  0  0  0  0  0  0  0
   17.1800   17.6530    7.6300 H   0  0  0  0  0  0  0  0  0  0  0  0
   16.9550   16.1450    5.4250 H   0  0  0  0  0  0  0  0  0  0  0  0
   16.3860   18.0200    4.0940 H   0  0  0  0  0  0  0  0  0  0  0  0
   14.2070   18.2780    4.7520 H   0  0  0  0  0  0  0  0  0  0  0  0
   14.6400   16.7540    4.8670 H   0  0  0  0  0  0  0  0  0  0  0  0
   14.5560   17.6570    6.1720 H   0  0  0  0  0  0  0  0  0  0  0  0
   15.7440   20.0550    5.2240 H   0  0  0  0  0  0  0  0  0  0  0  0
   16.4780   19.4800    6.5110 H   0  0  0  0  0  0  0  0  0  0  0  0
   17.3100   19.7840    5.1920 H   0  0  0  0  0  0  0  0  0  0  0  0
  2  1  1  0
  3  2  1  0
  4  3  2  0
  5  2  1  0
  6  5  1  0
  7  6  2  0
  8  6  1  0
  9  7  1  0
 10  8  2  0
 11 10  1  0
 11  9  2  0
  2 12  1  1
 13  5  1  0
 14  5  1  0
 15  7  1  0
 16  8  1  0
 17  9  1  0
 18 10  1  0
 19 11  1  0
 20  3  1  0
 21 20  1  0
 22 21  1  0
 23 22  2  0
 24 21  1  0
 25 24  1  0
 26 25  1  0
 26 20  1  0
 21 27  1  6
 28 24  1  0
 29 24  1  0
 30 25  1  0
 31 25  1  0
 32 26  1  0
 33 26  1  0
 34 22  1  0
 35 34  1  0
 36 35  1  0
 37 36  2  0
 38 35  1  0
 39 34  1  0
 35 40  1  6
 41 38  1  0
 42 38  1  0
 43 38  1  0
 44 36  1  0
 45 44  1  6
 46 45  1  0
 46 47  1  1
 48 46  1  0
 49 48  1  0
 50 49  1  0
 51 49  1  0
 52 49  1  0
 53 45  1  0
 54 53  1  0
 55 53  1  0
 56 55  1  0
 57 56  1  0
 58 57  2  0
 59 56  1  0
 60 59  1  0
 61 59  1  0
 62 57  1  0
 63 55  1  0
 56 64  1  6
 65 59  1  0
 66 60  1  0
 67 60  1  0
 68 60  1  0
 69 61  1  0
 70 61  1  0
 71 61  1  0
M  END
$$$$
5DKE
     RDKit          3D

 27 30  0  0  0  0  0  0  0  0999 V2000
   17.8830    8.5690    7.4840 C   0  0  0  0  0  0  0  0  0  0  0  0
   19.1350    9.3290    7.7780 C   0  0  2  0  0  0  0  0  0  0  0  0
   19.6820   10.2040    6.8630 C   0  0  2  0  0  0  0  0  0  0  0  0
   18.9500   10.6250    5.6320 C   0  0  0  0  0  0  0  0  0  0  0  0
   17.7860   11.3800    5.7220 C   0  0  0  0  0  0  0  0  0  0  0  0
   17.1170   11.7650    4.5720 C   0  0  0  0  0  0  0  0  0  0  0  0
   17.6170   11.4190    3.3270 C   0  0  0  0  0  0  0  0  0  0  0  0
   16.9490   11.8130    2.1880 O   0  0  0  0  0  0  0  0  0  0  0  0
   18.7850   10.6760    3.2330 C   0  0  0  0  0  0  0  0  0  0  0  0
   19.4510   10.2820    4.3820 C   0  0  0  0  0  0  0  0  0  0  0  0
   21.0750   10.7190    7.0170 C   0  0  0  0  0  0  0  0  0  0  0  0
   22.1430    9.8380    6.9580 C   0  0  0  0  0  0  0  0  0  0  0  0
   23.4410   10.2990    7.0930 C   0  0  0  0  0  0  0  0  0  0  0  0
   23.6750   11.6520    7.2820 C   0  0  0  0  0  0  0  0  0  0  0  0
   24.9680   12.1030    7.4150 O   0  0  0  0  0  0  0  0  0  0  0  0
   22.6090   12.5410    7.3340 C   0  0  0  0  0  0  0  0  0  0  0  0
   21.3100   12.0740    7.2000 C   0  0  0  0  0  0  0  0  0  0  0  0
   19.8230    9.0520    9.0730 C   0  0  0  0  0  0  0  0  0  0  0  0
   19.9690   10.0670   10.0250 C   0  0  0  0  0  0  0  0  0  0  0  0
   20.6130    9.8130   11.2310 C   0  0  0  0  0  0  0  0  0  0  0  0
   21.1190    8.5080   11.5000 C   0  0  0  0  0  0  0  0  0  0  0  0
   21.7770    8.2460   12.7390 C   0  0  0  0  0  0  0  0  0  0  0  0
   22.2710    6.9730   13.0060 C   0  0  0  0  0  0  0  0  0  0  0  0
   22.1240    5.9550   12.0580 C   0  0  0  0  0  0  0  0  0  0  0  0
   21.4810    6.2110   10.8480 C   0  0  0  0  0  0  0  0  0  0  0  0
   20.9740    7.5140   10.5750 C   0  0  0  0  0  0  0  0  0  0  0  0
   20.3170    7.7780    9.3360 C   0  0  0  0  0  0  0  0  0  0  0  0
  2  1  1  6
  3  2  1  0
  3  4  1  6
  5  4  1  0
  6  5  1  0
  7  6  1  0
  8  7  1  0
  9  7  1  0
 10  9  1  0
 10  4  1  0
 11  3  1  0
 12 11  1  0
 13 12  1  0
 14 13  1  0
 15 14  1  0
 16 14  1  0
 17 11  1  0
 17 16  1  0
 18  2  1  0
 19 18  1  0
 20 19  1  0
 21 20  1  0
 22 21  1  0
 23 22  1  0
 24 23  1  0
 25 24  1  0
 26 25  1  0
 26 21  1  0
 27 26  1  0
 27 18  1  0
M  END
$$$$
5TNB
     RDKit          3D

 37 41  0  0  0  0  0  0  0  0999 V2000
  -13.5470   25.1800  -41.6790 C   0  0  0  0  0  0  0  0  0  0  0  0
  -14.3390   24.2690  -41.0920 C   0  0  0  0  0  0  0  0  0  0  0  0
  -15.5840   24.0350  -41.5400 C   0  0  0  0  0  0  0  0  0  0  0  0
  -16.1070   24.6790  -42.6040 C   0  0  0  0  0  0  0  0  0  0  0  0
  -15.3020   25.5990  -43.1770 C   0  0  0  0  0  0  0  0  0  0  0  0
  -14.0570   25.8400  -42.7320 C   0  0  0  0  0  0  0  0  0  0  0  0
  -17.3660   24.4560  -43.0420 C   0  0  0  0  0  0  0  0  0  0  0  0
  -17.9940   24.5050  -44.2450 C   0  0  0  0  0  0  0  0  0  0  0  0
  -19.4470   24.1600  -43.9250 C   0  0  1  0  0  0  0  0  0  0  0  0
  -17.6300   24.7560  -45.5210 C   0  0  0  0  0  0  0  0  0  0  0  0
  -16.5220   24.2600  -46.1040 C   0  0  0  0  0  0  0  0  0  0  0  0
  -16.2150   24.5270  -47.3850 C   0  0  0  0  0  0  0  0  0  0  0  0
  -16.9910   25.3010  -48.1720 C   0  0  0  0  0  0  0  0  0  0  0  0
  -18.1020   25.7860  -47.5870 C   0  0  0  0  0  0  0  0  0  0  0  0
  -18.4120   25.5180  -46.3100 C   0  0  0  0  0  0  0  0  0  0  0  0
  -18.4860   24.0870  -42.0760 C   0  0  2  0  0  0  0  0  0  0  0  0
  -19.5850   22.6630  -43.6260 C   0  0  1  0  0  0  0  0  0  0  0  0
  -18.7780   22.5920  -42.3070 C   0  0  0  0  0  0  0  0  0  0  0  0
  -19.6070   24.7140  -42.6430 O   0  0  0  0  0  0  0  0  0  0  0  0
  -16.6290   25.5440  -49.4760 O   0  0  0  0  0  0  0  0  0  0  0  0
  -15.3710   25.1400  -49.9540 C   0  0  0  0  0  0  0  0  0  0  0  0
  -15.4410   25.0940  -51.4850 C   0  0  0  0  0  0  0  0  0  0  0  0
  -14.1610   25.2710  -52.1650 N   0  0  0  0  0  0  0  0  0  0  0  0
  -13.1490   24.3830  -51.6070 C   0  0  0  0  0  0  0  0  0  0  0  0
  -14.2750   25.0760  -53.6030 C   0  0  0  0  0  0  0  0  0  0  0  0
  -12.2860   25.4280  -41.2350 O   0  0  0  0  0  0  0  0  0  0  0  0
  -21.3680   22.1220  -43.5710 S   0  0  1  0  0  0  0  0  0  0  0  0
  -21.4020   21.8920  -41.9080 O   0  0  0  0  0  0  0  0  0  0  0  0
  -21.8310   22.9340  -41.1170 C   0  0  0  0  0  0  0  0  0  0  0  0
  -21.1660   23.2690  -39.9910 C   0  0  0  0  0  0  0  0  0  0  0  0
  -21.5600   24.2740  -39.1940 C   0  0  0  0  0  0  0  0  0  0  0  0
  -22.6600   24.9770  -39.5060 C   0  0  0  0  0  0  0  0  0  0  0  0
  -23.3490   24.6650  -40.6130 C   0  0  0  0  0  0  0  0  0  0  0  0
  -22.9390   23.6530  -41.3930 C   0  0  0  0  0  0  0  0  0  0  0  0
  -23.2370   26.3980  -38.3970 Br  0  0  0  0  0  0  0  0  0  0  0  0
  -22.0410   23.2930  -44.1200 O   0  0  0  0  0  0  0  0  0  0  0  0
  -21.2400   20.9090  -44.3630 O   0  0  0  0  0  0  0  0  0  0  0  0
  2  1  1  0
  3  2  1  0
  4  3  1  0
  5  4  1  0
  6  5  1  0
  6  1  1  0
  7  4  1  0
  8  7  1  0
  9  8  1  1
 10  8  1  0
 11 10  1  0
 12 11  1  0
 13 12  1  0
 14 13  1  0
 15 14  1  0
 15 10  1  0
 16  7  1  0
 17  9  1  0
 17 18  1  1
 16 18  1  6
 19  9  1  0
 19 16  1  0
 20 13  1  0
 21 20  1  0
 22 21  1  0
 23 22  1  0
 24 23  1  0
 25 23  1  0
 26  1  1  0
 27 17  1  0
 28 27  1  0
 29 28  1  0
 30 29  1  0
 31 30  1  0
 32 31  1  0
 33 32  1  0
 34 33  1  0
 34 29  1  0
 35 32  1  0
 27 36  1  6
 37 27  1  0
M  END
$$$$
5TM8
     RDKit          3D

 41 45  0  0  0  0  0  0  0  0999 V2000
  -14.7560    5.0850   49.3170 C   0  0  0  0  0  0  0  0  0  0  0  0
  -15.3250    6.3110   50.0410 C   0  0  2  0  0  0  0  0  0  0  0  0
  -15.4570    5.9640   51.5240 C   0  0  0  0  0  0  0  0  0  0  0  0
  -18.1360   -1.1670   47.2000 C   0  0  0  0  0  0  0  0  0  0  0  0
  -18.4680   -2.6410   47.4370 C   0  0  0  0  0  0  0  0  0  0  0  0
  -19.8410   -2.9990   46.8410 C   0  0  0  0  0  0  0  0  0  0  0  0
  -20.3500   -4.3620   47.3370 C   0  0  0  0  0  0  0  0  0  0  0  0
  -21.8640   -4.5140   47.1220 C   0  0  0  0  0  0  0  0  0  0  0  0
  -22.2050   -4.9570   45.6920 C   0  0  0  0  0  0  0  0  0  0  0  0
  -20.3270    4.0310   51.7550 C   0  0  0  0  0  0  0  0  0  0  0  0
  -21.0560    3.7320   50.6600 C   0  0  0  0  0  0  0  0  0  0  0  0
  -22.3790    3.9350   50.6110 C   0  0  0  0  0  0  0  0  0  0  0  0
  -23.0040    4.4460   51.6810 C   0  0  0  0  0  0  0  0  0  0  0  0
  -22.3090    4.7580   52.7840 C   0  0  0  0  0  0  0  0  0  0  0  0
  -20.9910    4.5320   52.8190 C   0  0  0  0  0  0  0  0  0  0  0  0
  -23.1330   -6.1580   45.6330 C   0  0  0  0  0  0  0  0  0  0  0  0
  -22.7130   -7.1390   46.4590 O   0  0  0  0  0  0  0  0  0  0  0  0
  -24.1300   -6.2820   44.9630 O   0  0  0  0  0  0  0  0  0  0  0  0
  -24.8680    4.7400   51.6410 Br  0  0  0  0  0  0  0  0  0  0  0  0
  -17.9370    4.9790   52.3750 S   0  0  2  0  0  0  0  0  0  0  0  0
  -18.7420    6.1470   52.0150 O   0  0  0  0  0  0  0  0  0  0  0  0
  -17.8010    4.5080   53.7470 O   0  0  0  0  0  0  0  0  0  0  0  0
  -16.4940    4.8280   51.3940 C   0  0  1  0  0  0  0  0  0  0  0  0
  -15.7950    4.2340   49.2180 C   0  0  2  0  0  0  0  0  0  0  0  0
  -16.9170    4.9740   49.9270 C   0  0  2  0  0  0  0  0  0  0  0  0
  -16.6810    6.3320   49.6820 O   0  0  0  0  0  0  0  0  0  0  0  0
  -13.4770    5.0410   48.9190 C   0  0  0  0  0  0  0  0  0  0  0  0
  -15.9980    2.9770   48.7790 C   0  0  2  0  0  0  0  0  0  0  0  0
  -12.5110    5.5760   49.6970 C   0  0  0  0  0  0  0  0  0  0  0  0
  -11.2200    5.5680   49.3260 C   0  0  0  0  0  0  0  0  0  0  0  0
  -10.8390    5.0290   48.1490 C   0  0  0  0  0  0  0  0  0  0  0  0
  -11.7950    4.4960   47.3710 C   0  0  0  0  0  0  0  0  0  0  0  0
  -13.0860    4.5040   47.7410 C   0  0  0  0  0  0  0  0  0  0  0  0
  -17.1130    2.6420   48.0970 C   0  0  0  0  0  0  0  0  0  0  0  0
  -17.3350    1.3790   47.7050 C   0  0  0  0  0  0  0  0  0  0  0  0
  -16.4820    0.3650   47.9780 C   0  0  0  0  0  0  0  0  0  0  0  0
  -15.3790    0.7000   48.6800 C   0  0  0  0  0  0  0  0  0  0  0  0
  -15.1580    1.9640   49.0770 C   0  0  0  0  0  0  0  0  0  0  0  0
  -18.9760    3.8000   51.7740 O   0  0  0  0  0  0  0  0  0  0  0  0
   -9.5330    5.0070   47.7650 O   0  0  0  0  0  0  0  0  0  0  0  0
  -16.7980   -0.8980   47.5410 O   0  0  0  0  0  0  0  0  0  0  0  0
  2  1  1  0
  2  3  1  1
  5  4  1  0
  6  5  1  0
  7  6  1  0
  8  7  1  0
  9  8  1  0
 11 10  1  0
 12 11  1  0
 13 12  1  0
 14 13  1  0
 15 14  1  0
 15 10  1  0
 16  9  1  0
 17 16  1  0
 18 16  1  0
 19 13  1  0
 20 21  1  1
 22 20  1  0
 23 20  1  0
 23  3  1  1
 24  1  1  1
 25 23  1  0
 25 24  1  0
 25 26  1  6
 26  2  1  0
 27  1  1  0
 28 24  1  0
 29 27  1  0
 30 29  1  0
 31 30  1  0
 32 31  1  0
 33 32  1  0
 33 27  1  0
 28 34  1  1
 35 34  1  0
 36 35  1  0
 37 36  1  0
 38 37  1  0
 38 28  1  0
 39 20  1  0
 39 10  1  0
 40 31  1  0
 41 36  1  0
 41  4  1  0
M  CHG  1  17  -1
M  END
$$$$
5T97
     RDKit          3D

 32 35  0  0  0  0  0  0  0  0999 V2000
  -42.0250   10.5610  -23.7780 C   0  0  0  0  0  0  0  0  0  0  0  0
  -41.1510   11.1690  -22.8490 C   0  0  0  0  0  0  0  0  0  0  0  0
  -39.9440   10.5260  -22.4650 C   0  0  0  0  0  0  0  0  0  0  0  0
  -41.4940   12.3890  -22.3470 O   0  0  0  0  0  0  0  0  0  0  0  0
  -40.4290    7.4510  -33.3440 O   0  0  0  0  0  0  0  0  0  0  0  0
  -42.4590    8.4280  -33.1340 O   0  0  0  0  0  0  0  0  0  0  0  0
  -37.7840    5.3870  -26.0920 C   0  0  0  0  0  0  0  0  0  0  0  0
  -37.4430    4.1350  -26.6390 C   0  0  0  0  0  0  0  0  0  0  0  0
  -37.5720    2.9740  -25.8420 C   0  0  0  0  0  0  0  0  0  0  0  0
  -38.0760    3.1060  -24.5100 C   0  0  0  0  0  0  0  0  0  0  0  0
  -38.4200    4.3660  -23.9680 C   0  0  0  0  0  0  0  0  0  0  0  0
  -37.1780    1.6190  -26.4430 C   0  0  1  0  0  0  0  0  0  0  0  0
  -36.3080    0.7400  -25.5230 C   0  0  0  0  0  0  0  0  0  0  0  0
  -38.3930    0.8630  -26.9960 C   0  0  0  0  0  0  0  0  0  0  0  0
  -40.4860    7.1380  -26.0620 C   0  0  2  0  0  0  0  0  0  0  0  0
  -41.3830    6.2280  -26.6890 C   0  0  0  0  0  0  0  0  0  0  0  0
  -41.5960    6.2510  -28.0920 C   0  0  0  0  0  0  0  0  0  0  0  0
  -40.9160    7.1840  -28.9110 C   0  0  1  0  0  0  0  0  0  0  0  0
  -39.9500    8.0270  -28.3050 C   0  0  0  0  0  0  0  0  0  0  0  0
  -39.7680    8.0170  -26.9080 C   0  0  0  0  0  0  0  0  0  0  0  0
  -41.0930    6.2160  -23.7230 C   0  0  0  0  0  0  0  0  0  0  0  0
  -41.0940    7.1650  -30.3750 C   0  0  0  0  0  0  0  0  0  0  0  0
  -41.1350    8.2250  -31.2090 C   0  0  0  0  0  0  0  0  0  0  0  0
  -41.2750    7.9900  -32.6310 C   0  0  0  0  0  0  0  0  0  0  0  0
  -39.6200    9.2540  -23.0140 C   0  0  0  0  0  0  0  0  0  0  0  0
  -40.4970    8.6080  -23.9590 C   0  0  2  0  0  0  0  0  0  0  0  0
  -41.7120    9.2920  -24.3160 C   0  0  0  0  0  0  0  0  0  0  0  0
  -38.3060    8.6110  -22.6040 C   0  0  0  0  0  0  0  0  0  0  0  0
  -38.1680    7.1340  -23.0010 C   0  0  0  0  0  0  0  0  0  0  0  0
  -38.7010    6.8390  -24.3500 N   0  0  0  0  0  0  0  0  0  0  0  0
  -40.1640    7.1780  -24.5360 C   0  0  2  0  0  0  0  0  0  0  0  0
  -38.2790    5.5380  -24.7640 C   0  0  2  0  0  0  0  0  0  0  0  0
  2  1  1  0
  3  2  1  0
  4  2  1  0
  8  7  1  0
  9  8  1  0
 10  9  1  0
 11 10  1  0
 12  9  1  0
 12 13  1  1
 14 12  1  0
 15 16  1  6
 17 16  1  0
 18 17  1  0
 19 18  1  0
 20 19  1  0
 20 15  1  0
 18 22  1  6
 23 22  1  0
 24  6  1  0
 24  5  1  0
 24 23  1  0
 25  3  1  0
 26 25  1  0
 26 27  1  1
 27  1  1  0
 28 25  1  0
 29 28  1  0
 30 29  1  0
 31 30  1  0
 31 26  1  0
 31 21  1  1
 31 15  1  0
 32 11  1  0
 32 30  1  6
 32  7  1  0
M  END
$$$$
7UJO
     RDKit          3D

 32 36  0  0  0  0  0  0  0  0999 V2000
   12.3270  -26.6130  -19.7020 C   0  0  0  0  0  0  0  0  0  0  0  0
   11.5060  -25.5340  -19.7390 C   0  0  0  0  0  0  0  0  0  0  0  0
   12.0680  -24.1600  -19.5240 C   0  0  0  0  0  0  0  0  0  0  0  0
   13.3860  -23.9760  -19.2930 C   0  0  0  0  0  0  0  0  0  0  0  0
   14.2960  -25.2140  -19.2520 C   0  0  0  0  0  0  0  0  0  0  0  0
   13.8090  -26.4140  -19.3950 C   0  0  2  0  0  0  0  0  0  0  0  0
   15.6290  -24.9190  -19.0080 C   0  0  0  0  0  0  0  0  0  0  0  0
   16.1220  -25.9070  -18.1410 C   0  0  0  0  0  0  0  0  0  0  0  0
   16.2580  -27.2230  -18.8700 C   0  0  2  0  0  0  0  0  0  0  0  0
   14.7200  -27.5310  -19.4640 C   0  0  1  0  0  0  0  0  0  0  0  0
   16.7940  -28.3100  -18.1780 C   0  0  1  0  0  0  0  0  0  0  0  0
   16.5530  -29.6230  -18.8020 C   0  0  2  0  0  0  0  0  0  0  0  0
   15.1870  -30.0050  -18.7380 C   0  0  0  0  0  0  0  0  0  0  0  0
   14.1450  -29.0150  -19.3700 C   0  0  2  0  0  0  0  0  0  0  0  0
   18.4070  -28.2220  -18.1440 C   0  0  0  0  0  0  0  0  0  0  0  0
   18.8150  -29.8190  -17.9050 C   0  0  0  0  0  0  0  0  0  0  0  0
   17.4370  -30.5780  -17.9860 C   0  0  2  0  0  0  0  0  0  0  0  0
   17.1310  -29.7260  -20.2230 C   0  0  0  0  0  0  0  0  0  0  0  0
   13.9130  -29.2570  -20.8000 C   0  0  0  0  0  0  0  0  0  0  0  0
   14.3440  -28.2650  -21.6950 C   0  0  0  0  0  0  0  0  0  0  0  0
   14.1770  -28.3420  -23.0690 C   0  0  0  0  0  0  0  0  0  0  0  0
   13.5630  -29.4670  -23.5680 C   0  0  0  0  0  0  0  0  0  0  0  0
   13.1170  -30.4860  -22.7130 C   0  0  0  0  0  0  0  0  0  0  0  0
   13.2860  -30.3890  -21.3170 C   0  0  0  0  0  0  0  0  0  0  0  0
   12.4960  -30.5110  -25.4440 C   0  0  0  0  0  0  0  0  0  0  0  0
   12.4640  -30.4280  -26.9880 C   0  0  0  0  0  0  0  0  0  0  0  0
   11.5440  -28.2390  -27.0650 C   0  0  0  0  0  0  0  0  0  0  0  0
   11.2570  -29.6950  -28.8670 C   0  0  0  0  0  0  0  0  0  0  0  0
   11.3590  -29.6070  -27.4430 N   0  0  0  0  0  0  0  0  0  0  0  0
   11.1750  -23.0360  -19.5790 O   0  0  0  0  0  0  0  0  0  0  0  0
   17.5930  -31.7720  -18.6060 O   0  0  0  0  0  0  0  0  0  0  0  0
   13.4090  -29.5250  -24.9790 O   0  0  0  0  0  0  0  0  0  0  0  0
  2  1  1  0
  3  2  1  0
  4  3  1  0
  5  4  1  0
  6  5  1  0
  6  1  1  6
  7  5  1  0
  8  7  1  0
  9  8  1  1
 10  9  1  0
 10  6  1  0
 11  9  1  0
 12 11  1  0
 13 12  1  0
 14 13  1  0
 10 14  1  1
 11 15  1  6
 16 15  1  0
 17 16  1  0
 17 12  1  0
 12 18  1  6
 14 19  1  6
 20 19  1  0
 21 20  1  0
 22 21  1  0
 23 22  1  0
 24 23  1  0
 24 19  1  0
 26 25  1  0
 29 28  1  0
 29 27  1  0
 29 26  1  0
 30  3  1  0
 17 31  1  6
 32 25  1  0
 32 22  1  0
M  END
$$$$
5TN4
     RDKit          3D

 19 21  0  0  0  0  0  0  0  0999 V2000
   21.6030   -4.1020    8.8000 O   0  0  0  0  0  0  0  0  0  0  0  0
   20.8320   -3.6640    7.7080 C   0  0  0  0  0  0  0  0  0  0  0  0
   21.4600   -3.5000    6.4930 C   0  0  0  0  0  0  0  0  0  0  0  0
   22.9360   -3.7910    6.3580 C   0  0  0  0  0  0  0  0  0  0  0  0
   20.7310   -3.0690    5.4030 C   0  0  0  0  0  0  0  0  0  0  0  0
   19.3770   -2.8000    5.5180 C   0  0  0  0  0  0  0  0  0  0  0  0
   18.7010   -2.3410    4.2530 C   0  0  0  0  0  0  0  0  0  0  0  0
   17.3660   -1.9550    4.1470 C   0  0  0  0  0  0  0  0  0  0  0  0
   16.9040   -1.5550    2.8710 C   0  0  0  0  0  0  0  0  0  0  0  0
   15.5450   -1.0860    2.3850 C   0  0  0  0  0  0  0  0  0  0  0  0
   15.5970   -1.0750    0.8720 C   0  0  0  0  0  0  0  0  0  0  0  0
   17.0530   -1.0850    0.5350 C   0  0  2  0  0  0  0  0  0  0  0  0
   17.3600   -1.9580   -0.4900 O   0  0  0  0  0  0  0  0  0  0  0  0
   17.7660   -1.5530    1.7930 C   0  0  0  0  0  0  0  0  0  0  0  0
   19.0940   -1.9390    1.9150 C   0  0  0  0  0  0  0  0  0  0  0  0
   19.5480   -2.3280    3.1480 C   0  0  0  0  0  0  0  0  0  0  0  0
   18.7340   -2.9670    6.7310 C   0  0  0  0  0  0  0  0  0  0  0  0
   19.4730   -3.3980    7.8250 C   0  0  0  0  0  0  0  0  0  0  0  0
   18.7930   -3.5770    9.1640 C   0  0  0  0  0  0  0  0  0  0  0  0
  2  1  1  0
  3  2  1  0
  4  3  1  0
  5  3  1  0
  6  5  1  0
  7  6  1  0
  8  7  1  0
  9  8  1  0
 10  9  1  0
 11 10  1  0
 12 11  1  0
 12 13  1  6
 14 12  1  0
 14  9  1  0
 15 14  1  0
 16 15  1  0
 16  7  1  0
 17  6  1  0
 18 17  1  0
 18  2  1  0
 19 18  1  0
M  END
$$$$
2QSE
     RDKit          3D

 18 20  0  0  0  0  0  0  0  0999 V2000
    3.4250    4.0360   -6.4490 C   0  0  0  0  0  0  0  0  0  0  0  0
    2.1430    3.7530   -6.0100 C   0  0  0  0  0  0  0  0  0  0  0  0
    1.3810    4.2840   -5.0700 N   0  0  0  0  0  0  0  0  0  0  0  0
    1.7770    5.4130   -4.2000 C   0  0  0  0  0  0  0  0  0  0  0  0
    0.2250    3.6340   -5.0580 C   0  0  0  0  0  0  0  0  0  0  0  0
   -0.7930    3.8890   -4.2550 N   0  0  0  0  0  0  0  0  0  0  0  0
    0.2200    2.6780   -5.9800 N   0  0  0  0  0  0  0  0  0  0  0  0
    1.4040    2.7230   -6.5980 C   0  0  0  0  0  0  0  0  0  0  0  0
    1.9260    1.9850   -7.5990 N   0  0  0  0  0  0  0  0  0  0  0  0
    3.1480    2.2270   -8.0380 C   0  0  0  0  0  0  0  0  0  0  0  0
    3.9170    3.2650   -7.4980 C   0  0  2  0  0  0  0  0  0  0  0  0
    5.2080    3.4710   -7.9500 C   0  0  2  0  0  0  0  0  0  0  0  0
    5.5530    3.4290   -9.3000 C   0  0  0  0  0  0  0  0  0  0  0  0
    6.8840    3.6080   -9.6710 C   0  0  0  0  0  0  0  0  0  0  0  0
    7.8510    3.8200   -8.6870 C   0  0  0  0  0  0  0  0  0  0  0  0
    9.1520    3.9970   -9.0010 O   0  0  0  0  0  0  0  0  0  0  0  0
    7.4980    3.8490   -7.3440 C   0  0  0  0  0  0  0  0  0  0  0  0
    6.1800    3.6660   -6.9730 C   0  0  0  0  0  0  0  0  0  0  0  0
  2  1  1  0
  3  2  1  0
  4  3  1  0
  5  3  1  0
  6  5  1  0
  7  5  1  0
  8  7  1  0
  8  2  1  0
  9  8  1  0
 10  9  1  0
 11 10  1  1
 11  1  1  0
 12 11  1  0
 12 13  1  1
 14 13  1  0
 15 14  1  0
 16 15  1  0
 17 15  1  0
 18 12  1  0
 18 17  1  0
M  END
$$$$
8DUK
     RDKit          3D

 32 36  0  0  0  0  0  0  0  0999 V2000
   -7.6790   -3.2080   14.9410 N   0  0  0  0  0  0  0  0  0  0  0  0
   -8.0440    0.9970   15.5160 C   0  0  0  0  0  0  0  0  0  0  0  0
   -7.9000   -0.4960   15.3680 C   0  0  0  0  0  0  0  0  0  0  0  0
   -6.7340   -1.1420   15.6110 C   0  0  1  0  0  0  0  0  0  0  0  0
   -9.1680   -1.2220   14.8670 C   0  0  0  0  0  0  0  0  0  0  0  0
   -9.0020   -2.6970   15.2520 C   0  0  2  0  0  0  0  0  0  0  0  0
   -7.4540   -4.3420   14.0430 C   0  0  1  0  0  0  0  0  0  0  0  0
   -9.8900   -6.5980   12.0980 C   0  0  0  0  0  0  0  0  0  0  0  0
   -9.9050   -4.2520   11.2090 C   0  0  0  0  0  0  0  0  0  0  0  0
   -9.8190   -3.2170   16.4600 C   0  0  0  0  0  0  0  0  0  0  0  0
   -5.3000   -4.1630   17.1320 C   0  0  0  0  0  0  0  0  0  0  0  0
   -4.9940   -4.7190   18.5270 C   0  0  0  0  0  0  0  0  0  0  0  0
   -5.6570   -4.1800   19.5550 C   0  0  0  0  0  0  0  0  0  0  0  0
   -6.9830   -2.5720   18.1380 C   0  0  0  0  0  0  0  0  0  0  0  0
   -3.9110   -4.7250   22.7930 C   0  0  0  0  0  0  0  0  0  0  0  0
   -5.5460   -0.3390   16.0630 C   0  0  0  0  0  0  0  0  0  0  0  0
   -8.5240   -4.9710   13.1590 C   0  0  2  0  0  0  0  0  0  0  0  0
   -8.8760   -6.2410   13.1560 C   0  0  0  0  0  0  0  0  0  0  0  0
  -10.3600   -5.7010   11.2290 C   0  0  0  0  0  0  0  0  0  0  0  0
   -9.0300   -3.9340   12.1480 C   0  0  0  0  0  0  0  0  0  0  0  0
  -10.4140   -3.3290   15.0970 C   0  0  0  0  0  0  0  0  0  0  0  0
   -6.2280   -3.2010   16.9710 C   0  0  1  0  0  0  0  0  0  0  0  0
   -5.6770    0.9730   16.1820 C   0  0  0  0  0  0  0  0  0  0  0  0
   -6.6950   -3.0750   19.3580 C   0  0  0  0  0  0  0  0  0  0  0  0
   -4.2110   -4.1270   21.4050 C   0  0  0  0  0  0  0  0  0  0  0  0
   -5.2250   -2.7530   23.4140 C   0  0  0  0  0  0  0  0  0  0  0  0
   -6.9640    1.6860   15.8930 C   0  0  2  0  0  0  0  0  0  0  0  0
   -6.4850   -2.6510   15.5540 C   0  0  1  0  0  0  0  0  0  0  0  0
   -4.1780   -3.7100   23.8060 N   0  0  0  0  0  0  0  0  0  0  0  0
   -7.0150    3.0590   16.1050 O   0  0  0  0  0  0  0  0  0  0  0  0
   -6.3490   -4.7150   13.8680 O   0  0  0  0  0  0  0  0  0  0  0  0
   -5.4070   -4.6620   20.8870 O   0  0  0  0  0  0  0  0  0  0  0  0
  3  2  1  0
  4  3  1  0
  5  3  1  0
  6  5  1  1
  6  1  1  0
  7  1  1  0
 10  6  1  0
 12 11  1  0
 13 12  1  0
  4 16  1  1
 17  7  1  0
 18  8  1  0
 17 18  1  6
 19  8  1  0
 19  9  1  0
 20 17  1  0
 20  9  1  0
 21  6  1  0
 21 10  1  0
 22 14  1  1
 22 11  1  0
 23 16  1  0
 24 14  1  0
 24 13  1  0
 25 15  1  0
 27 23  1  0
 27  2  1  0
 28  4  1  0
 28  1  1  1
 28 22  1  0
 29 26  1  0
 29 15  1  0
 27 30  1  1
  7 31  1  6
 32 13  1  0
 32 25  1  0
M  END
$$$$
8DU9
     RDKit          3D

 36 41  0  0  0  0  0  0  0  0999 V2000
   43.0060   -5.3150   15.2580 N   0  0  0  0  0  0  0  0  0  0  0  0
   42.7170   -1.0560   15.8980 C   0  0  0  0  0  0  0  0  0  0  0  0
   42.7840   -2.5920   15.8310 C   0  0  0  0  0  0  0  0  0  0  0  0
   43.9470   -3.2030   16.0170 C   0  0  0  0  0  0  0  0  0  0  0  0
   41.4680   -3.3780   15.5470 C   0  0  0  0  0  0  0  0  0  0  0  0
   41.6210   -4.9300   15.6010 C   0  0  2  0  0  0  0  0  0  0  0  0
   43.3460   -6.3100   14.1870 C   0  0  0  0  0  0  0  0  0  0  0  0
   40.7690   -7.0260   11.3290 C   0  0  0  0  0  0  0  0  0  0  0  0
   40.7610   -8.9500   12.8950 C   0  0  0  0  0  0  0  0  0  0  0  0
   44.2630   -5.2770   17.4110 C   0  0  0  0  0  0  0  0  0  0  0  0
   44.5890   -6.3250   20.0550 C   0  0  0  0  0  0  0  0  0  0  0  0
   43.4560   -5.3200   19.7650 C   0  0  0  0  0  0  0  0  0  0  0  0
   43.3060   -4.8310   18.5350 C   0  0  0  0  0  0  0  0  0  0  0  0
   40.5360   -5.6500   16.4670 C   0  0  0  0  0  0  0  0  0  0  0  0
   46.2380   -7.6200   23.1460 C   0  0  0  0  0  0  0  0  0  0  0  0
   47.4650   -5.9300   26.0490 C   0  0  0  0  0  0  0  0  0  0  0  0
   45.2270   -2.3980   16.2960 C   0  0  0  0  0  0  0  0  0  0  0  0
   42.2580   -7.0200   13.3130 C   0  0  0  0  0  0  0  0  0  0  0  0
   41.8370   -6.3900   12.2280 C   0  0  0  0  0  0  0  0  0  0  0  0
   40.2720   -8.2140   11.6390 C   0  0  0  0  0  0  0  0  0  0  0  0
   41.6840   -8.4000   13.6770 C   0  0  0  0  0  0  0  0  0  0  0  0
   45.2430   -6.1400   17.6640 C   0  0  0  0  0  0  0  0  0  0  0  0
   45.4170   -6.7050   19.0860 C   0  0  0  0  0  0  0  0  0  0  0  0
   45.1640   -1.0720   16.3540 C   0  0  0  0  0  0  0  0  0  0  0  0
   40.2030   -5.2980   15.0590 C   0  0  0  0  0  0  0  0  0  0  0  0
   46.1270   -6.9130   21.7580 C   0  0  0  0  0  0  0  0  0  0  0  0
   47.1660   -7.0260   24.9990 C   0  0  0  0  0  0  0  0  0  0  0  0
   46.1750   -5.1860   26.4170 C   0  0  0  0  0  0  0  0  0  0  0  0
   43.8200   -0.3540   16.1410 C   0  0  0  0  0  0  0  0  0  0  0  0
   45.5560   -4.6350   25.1250 C   0  0  0  0  0  0  0  0  0  0  0  0
   45.8530   -5.5550   23.9160 C   0  0  0  0  0  0  0  0  0  0  0  0
   44.1130   -4.7160   15.9680 C   0  0  1  0  0  0  0  0  0  0  0  0
   46.1220   -6.8210   24.2100 N   0  0  0  0  0  0  0  0  0  0  0  0
   44.4890   -6.5500   13.9850 O   0  0  0  0  0  0  0  0  0  0  0  0
   43.7570    1.0500   16.2020 O   0  0  0  0  0  0  0  0  0  0  0  0
   44.7630   -6.8540   21.3600 O   0  0  0  0  0  0  0  0  0  0  0  0
  3  2  1  0
  4  3  1  0
  5  3  1  0
  6  5  1  1
  6  1  1  0
  7  1  1  0
 12 11  1  0
 13 12  1  0
 13 10  1  0
 14  6  1  0
 17  4  1  0
 18  7  1  0
 19 18  1  0
 19  8  1  0
 20  9  1  0
 20  8  1  0
 21 18  1  0
 21  9  1  0
 22 10  1  0
 23 22  1  0
 23 11  1  0
 24 17  1  0
 25 14  1  0
 25  6  1  0
 26 15  1  0
 27 16  1  0
 28 16  1  0
 29  2  1  0
 29 24  1  0
 30 28  1  0
 31 30  1  0
 32  1  1  0
 32  4  1  0
 32 10  1  1
 33 31  1  0
 33 27  1  0
 33 15  1  0
 34  7  1  0
 35 29  1  0
 36 26  1  0
 36 11  1  0
M  END
$$$$
5TLY
     RDKit          3D

 75 75  0  0  0  0  0  0  0  0999 V2000
   31.0810   16.1380    5.7990 N   0  0  0  0  0  0  0  0  0  0  0  0
   29.6720   16.5140    5.8410 C   0  0  2  0  0  0  0  0  0  0  0  0
   28.9870   16.2040    4.5110 C   0  0  0  0  0  0  0  0  0  0  0  0
   28.4070   17.0880    3.8800 O   0  0  0  0  0  0  0  0  0  0  0  0
   29.5280   17.9990    6.1810 C   0  0  0  0  0  0  0  0  0  0  0  0
   29.0530   14.9300    4.1110 N   0  0  0  0  0  0  0  0  0  0  0  0
   28.5850   14.5130    2.7910 C   0  0  2  0  0  0  0  0  0  0  0  0
   27.1240   14.8920    2.5820 C   0  0  0  0  0  0  0  0  0  0  0  0
   26.7350   15.3430    1.4970 O   0  0  0  0  0  0  0  0  0  0  0  0
   28.8040   12.9990    2.6090 C   0  0  2  0  0  0  0  0  0  0  0  0
   30.2790   12.6520    2.8100 C   0  0  0  0  0  0  0  0  0  0  0  0
   28.3210   12.5450    1.2390 C   0  0  0  0  0  0  0  0  0  0  0  0
   30.5040   11.4940    3.7490 C   0  0  0  0  0  0  0  0  0  0  0  0
   26.2920   14.7150    3.6120 N   0  0  0  0  0  0  0  0  0  0  0  0
   24.8660   14.9930    3.4700 C   0  0  2  0  0  0  0  0  0  0  0  0
   24.6180   16.4520    3.1100 C   0  0  0  0  0  0  0  0  0  0  0  0
   23.7160   16.7610    2.3230 O   0  0  0  0  0  0  0  0  0  0  0  0
   24.1280   14.6230    4.7560 C   0  0  0  0  0  0  0  0  0  0  0  0
   22.6160   14.8530    4.7610 C   0  0  0  0  0  0  0  0  0  0  0  0
   21.9640   14.1490    3.5840 C   0  0  0  0  0  0  0  0  0  0  0  0
   22.0060   14.3770    6.0680 C   0  0  0  0  0  0  0  0  0  0  0  0
   25.4110   17.3650    3.6750 N   0  0  0  0  0  0  0  0  0  0  0  0
   25.2800   18.7750    3.3250 C   0  0  2  0  0  0  0  0  0  0  0  0
   25.5580   18.9960    1.8430 C   0  0  0  0  0  0  0  0  0  0  0  0
   24.7990   19.6840    1.1520 O   0  0  0  0  0  0  0  0  0  0  0  0
   26.2260   19.6170    4.1800 C   0  0  0  0  0  0  0  0  0  0  0  0
   25.9700   19.5180    5.6520 C   0  0  0  0  0  0  0  0  0  0  0  0
   25.4660   20.5660    6.3920 N   0  0  0  0  0  0  0  0  0  0  0  0
   26.1560   18.4990    6.5240 C   0  0  0  0  0  0  0  0  0  0  0  0
   25.3490   20.1960    7.6540 C   0  0  0  0  0  0  0  0  0  0  0  0
   25.7610   18.9450    7.7620 N   0  0  0  0  0  0  0  0  0  0  0  0
   26.6440   18.4050    1.3370 N   0  0  0  0  0  0  0  0  0  0  0  0
   27.0140   18.5840   -0.0640 C   0  0  2  0  0  0  0  0  0  0  0  0
   25.9380   18.0460   -1.0000 C   0  0  0  0  0  0  0  0  0  0  0  0
   25.6300   18.6650   -2.0250 O   0  0  0  0  0  0  0  0  0  0  0  0
   28.3510   17.8950   -0.3380 C   0  0  0  0  0  0  0  0  0  0  0  0
   28.8340   17.9890   -1.7760 C   0  0  0  0  0  0  0  0  0  0  0  0
   29.9530   16.9910   -2.0340 C   0  0  0  0  0  0  0  0  0  0  0  0
   29.4550   15.6180   -2.0870 N   0  0  0  0  0  0  0  0  0  0  0  0
   30.2170   14.5380   -1.9430 C   0  0  0  0  0  0  0  0  0  0  0  0
   31.5170   14.6660   -1.7210 N   0  0  0  0  0  0  0  0  0  0  0  0
   29.6760   13.3290   -2.0100 N   0  0  0  0  0  0  0  0  0  0  0  0
   25.3540   16.8940   -0.6640 N   0  0  0  0  0  0  0  0  0  0  0  0
   24.3630   16.2860   -1.5450 C   0  0  2  0  0  0  0  0  0  0  0  0
   23.0730   17.0940   -1.5910 C   0  0  0  0  0  0  0  0  0  0  0  0
   22.3460   17.0420   -2.5890 O   0  0  0  0  0  0  0  0  0  0  0  0
   24.0870   14.8490   -1.1040 C   0  0  0  0  0  0  0  0  0  0  0  0
   25.2640   13.8950   -1.3250 C   0  0  0  0  0  0  0  0  0  0  0  0
   25.0260   12.5510   -0.6600 C   0  0  0  0  0  0  0  0  0  0  0  0
   25.5280   13.7170   -2.8130 C   0  0  0  0  0  0  0  0  0  0  0  0
   22.7740   17.8490   -0.5330 N   0  0  0  0  0  0  0  0  0  0  0  0
   21.5940   18.7020   -0.5340 C   0  0  2  0  0  0  0  0  0  0  0  0
   21.8220   20.0170   -1.2680 C   0  0  0  0  0  0  0  0  0  0  0  0
   20.8490   20.6420   -1.7050 O   0  0  0  0  0  0  0  0  0  0  0  0
   21.1430   18.9780    0.9020 C   0  0  0  0  0  0  0  0  0  0  0  0
   20.4490   17.8220    1.6270 C   0  0  0  0  0  0  0  0  0  0  0  0
   20.3790   18.0930    3.1180 C   0  0  0  0  0  0  0  0  0  0  0  0
   19.0540   17.6020    1.0650 C   0  0  0  0  0  0  0  0  0  0  0  0
   23.0780   20.4490   -1.4150 N   0  0  0  0  0  0  0  0  0  0  0  0
   23.3580   21.6660   -2.1700 C   0  0  2  0  0  0  0  0  0  0  0  0
   23.0950   21.4650   -3.6580 C   0  0  0  0  0  0  0  0  0  0  0  0
   22.5440   22.3480   -4.3230 O   0  0  0  0  0  0  0  0  0  0  0  0
   24.8060   22.1080   -1.9470 C   0  0  0  0  0  0  0  0  0  0  0  0
   25.2130   22.2790   -0.4910 C   0  0  0  0  0  0  0  0  0  0  0  0
   24.9830   23.6830    0.0330 C   0  0  0  0  0  0  0  0  0  0  0  0
   24.1970   24.4480   -0.5250 O   0  0  0  0  0  0  0  0  0  0  0  0
   25.6770   24.0310    1.1110 N   0  0  0  0  0  0  0  0  0  0  0  0
   23.4850   20.3110   -4.1930 N   0  0  0  0  0  0  0  0  0  0  0  0
   23.3420   20.0280   -5.6170 C   0  0  2  0  0  0  0  0  0  0  0  0
   21.8810   19.8190   -6.0010 C   0  0  0  0  0  0  0  0  0  0  0  0
   21.4460   18.6910   -6.2350 O   0  0  0  0  0  0  0  0  0  0  0  0
   24.1640   18.7960   -5.9990 C   0  0  0  0  0  0  0  0  0  0  0  0
   25.6290   18.9370   -5.6320 C   0  0  0  0  0  0  0  0  0  0  0  0
   26.4700   18.2650   -6.2670 O   0  0  0  0  0  0  0  0  0  0  0  0
   25.9390   19.7200   -4.7100 O   0  0  0  0  0  0  0  0  0  0  0  0
  2  1  1  0
  3  2  1  0
  4  3  2  0
  2  5  1  6
  6  3  1  0
  7  6  1  1
  8  7  1  0
  9  8  2  0
 10  7  1  0
 11 10  1  0
 10 12  1  6
 13 11  1  0
 14  8  1  0
 15 14  1  0
 16 15  1  0
 17 16  2  0
 15 18  1  1
 19 18  1  0
 20 19  1  0
 21 19  1  0
 22 16  1  0
 23 22  1  0
 24 23  1  0
 25 24  2  0
 23 26  1  1
 27 26  1  0
 28 27  1  0
 29 27  2  0
 30 28  2  0
 31 30  1  0
 31 29  1  0
 32 24  1  0
 33 32  1  0
 34 33  1  0
 35 34  2  0
 33 36  1  1
 37 36  1  0
 38 37  1  0
 39 38  1  0
 40 39  1  0
 41 40  1  0
 42 40  2  0
 43 34  1  0
 44 43  1  0
 45 44  1  0
 46 45  2  0
 44 47  1  1
 48 47  1  0
 49 48  1  0
 50 48  1  0
 51 45  1  0
 52 51  1  0
 53 52  1  0
 54 53  2  0
 52 55  1  1
 56 55  1  0
 57 56  1  0
 58 56  1  0
 59 53  1  0
 60 59  1  0
 61 60  1  0
 62 61  2  0
 60 63  1  6
 64 63  1  0
 65 64  1  0
 66 65  2  0
 67 65  1  0
 68 61  1  0
 69 68  1  0
 70 69  1  0
 71 70  2  0
 69 72  1  1
 73 72  1  0
 74 73  2  0
 75 73  1  0
M  END
$$$$
7KBS
     RDKit          3D

 34 38  0  0  0  0  0  0  0  0999 V2000
   -3.2420  -28.8760   26.2880 C   0  0  0  0  0  0  0  0  0  0  0  0
   -3.3360  -27.5170   26.1730 C   0  0  0  0  0  0  0  0  0  0  0  0
   -2.2600  -26.6970   26.4860 C   0  0  0  0  0  0  0  0  0  0  0  0
   -2.3760  -25.3520   26.3470 O   0  0  0  0  0  0  0  0  0  0  0  0
   -1.0680  -27.2410   26.9190 C   0  0  0  0  0  0  0  0  0  0  0  0
   -0.9640  -28.6130   27.0410 C   0  0  0  0  0  0  0  0  0  0  0  0
    0.4160  -29.5080   27.6020 S   0  0  0  0  0  0  0  0  0  0  0  0
   -0.4230  -31.0300   27.4490 C   0  0  0  0  0  0  0  0  0  0  0  0
    0.2130  -32.3080   27.8280 C   0  0  1  0  0  0  0  0  0  0  0  0
    0.7900  -32.4790   29.0760 C   0  0  0  0  0  0  0  0  0  0  0  0
    1.3340  -33.6880   29.4620 C   0  0  0  0  0  0  0  0  0  0  0  0
    1.3000  -34.7720   28.6040 C   0  0  0  0  0  0  0  0  0  0  0  0
    1.8290  -35.9570   29.0240 O   0  0  0  0  0  0  0  0  0  0  0  0
    0.7310  -34.6250   27.3490 C   0  0  0  0  0  0  0  0  0  0  0  0
    0.1860  -33.4080   26.9790 C   0  0  0  0  0  0  0  0  0  0  0  0
   -2.0490  -29.4490   26.7340 C   0  0  0  0  0  0  0  0  0  0  0  0
   -1.6860  -30.8410   26.9660 C   0  0  0  0  0  0  0  0  0  0  0  0
   -2.5940  -31.9280   26.6510 C   0  0  0  0  0  0  0  0  0  0  0  0
   -3.0520  -32.5710   27.5300 O   0  0  0  0  0  0  0  0  0  0  0  0
   -2.9580  -32.2370   25.2410 C   0  0  0  0  0  0  0  0  0  0  0  0
   -2.2090  -31.6850   24.2220 C   0  0  0  0  0  0  0  0  0  0  0  0
   -2.5020  -31.9260   22.9000 C   0  0  0  0  0  0  0  0  0  0  0  0
   -3.5810  -32.7190   22.5620 C   0  0  0  0  0  0  0  0  0  0  0  0
   -4.3500  -33.2740   23.5660 C   0  0  0  0  0  0  0  0  0  0  0  0
   -4.0340  -33.0370   24.8900 C   0  0  0  0  0  0  0  0  0  0  0  0
   -3.8280  -32.9320   21.2370 O   0  0  0  0  0  0  0  0  0  0  0  0
   -5.0810  -33.4870   20.8940 C   0  0  0  0  0  0  0  0  0  0  0  0
   -5.0780  -33.8290   19.4390 C   0  0  0  0  0  0  0  0  0  0  0  0
   -5.3840  -32.7040   18.5640 N   0  0  0  0  0  0  0  0  0  0  0  0
   -5.7050  -33.1940   17.2340 C   0  0  0  0  0  0  0  0  0  0  0  0
   -5.9870  -32.0810   16.2630 C   0  0  0  0  0  0  0  0  0  0  0  0
   -4.7840  -31.1870   16.1630 C   0  0  0  0  0  0  0  0  0  0  0  0
   -4.4480  -30.6590   17.5380 C   0  0  0  0  0  0  0  0  0  0  0  0
   -4.2660  -31.7690   18.5430 C   0  0  0  0  0  0  0  0  0  0  0  0
  2  1  1  0
  3  2  1  0
  4  3  1  0
  5  3  1  0
  6  5  1  0
  7  6  1  0
  8  7  1  0
  9  8  1  1
 10  9  1  0
 11 10  1  0
 12 11  1  0
 13 12  1  0
 14 12  1  0
 15 14  1  0
 15  9  1  0
 16  6  1  0
 16  1  1  0
 17 16  1  0
 17  8  1  0
 18 17  1  0
 19 18  1  0
 20 18  1  0
 21 20  1  0
 22 21  1  0
 23 22  1  0
 24 23  1  0
 25 24  1  0
 25 20  1  0
 26 23  1  0
 27 26  1  0
 28 27  1  0
 29 28  1  0
 30 29  1  0
 31 30  1  0
 32 31  1  0
 33 32  1  0
 34 29  1  0
 34 33  1  0
M  END
$$$$
8DV5
     RDKit          3D

 39 44  0  0  0  0  0  0  0  0999 V2000
   -1.8490  -31.3620   27.3990 N   0  0  0  0  0  0  0  0  0  0  0  0
   -1.5380  -27.1280   26.8640 C   0  0  0  0  0  0  0  0  0  0  0  0
   -1.6450  -28.6270   26.9600 C   0  0  2  0  0  0  0  0  0  0  0  0
   -2.7620  -29.2770   26.6610 C   0  0  1  0  0  0  0  0  0  0  0  0
   -0.3360  -29.3860   27.5180 C   0  0  0  0  0  0  0  0  0  0  0  0
   -0.5610  -30.9350   27.2860 C   0  0  1  0  0  0  0  0  0  0  0  0
   -2.1680  -32.5540   28.2110 C   0  0  1  0  0  0  0  0  0  0  0  0
    0.3120  -34.8320   30.1680 C   0  0  0  0  0  0  0  0  0  0  0  0
    0.2240  -32.5790   31.0940 C   0  0  0  0  0  0  0  0  0  0  0  0
    0.8220  -31.6160   27.2820 C   0  0  0  0  0  0  0  0  0  0  0  0
   -3.8790  -32.3520   25.0650 C   0  0  0  0  0  0  0  0  0  0  0  0
   -4.0170  -32.8240   23.6080 C   0  0  0  0  0  0  0  0  0  0  0  0
   -3.3380  -32.2230   22.6530 C   0  0  0  0  0  0  0  0  0  0  0  0
   -2.3210  -30.6650   24.2210 C   0  0  0  0  0  0  0  0  0  0  0  0
   -4.6810  -33.5160   19.4790 C   0  0  2  0  0  0  0  0  0  0  0  0
   -6.4810  -32.4750   18.8880 C   0  0  0  0  0  0  0  0  0  0  0  0
   -3.9640  -28.5240   26.1470 C   0  0  0  0  0  0  0  0  0  0  0  0
   -1.1130  -33.2000   29.1340 C   0  0  2  0  0  0  0  0  0  0  0  0
   -0.7020  -34.4370   29.1260 C   0  0  0  0  0  0  0  0  0  0  0  0
    0.7340  -33.9900   31.0460 C   0  0  0  0  0  0  0  0  0  0  0  0
   -0.6420  -32.2080   30.1740 C   0  0  0  0  0  0  0  0  0  0  0  0
    0.1790  -31.3420   25.9890 C   0  0  0  0  0  0  0  0  0  0  0  0
   -3.0930  -31.3370   25.3210 C   0  0  0  0  0  0  0  0  0  0  0  0
   -3.8760  -27.2120   26.0530 C   0  0  0  0  0  0  0  0  0  0  0  0
   -2.4220  -31.0720   22.9990 C   0  0  0  0  0  0  0  0  0  0  0  0
   -4.5770  -33.3320   21.0480 C   0  0  0  0  0  0  0  0  0  0  0  0
   -4.3810  -32.2260   18.7710 C   0  0  0  0  0  0  0  0  0  0  0  0
   -6.0140  -33.7830   19.3540 C   0  0  0  0  0  0  0  0  0  0  0  0
   -2.5980  -26.4460   26.4300 C   0  0  0  0  0  0  0  0  0  0  0  0
   -5.6520  -31.4020   17.2180 C   0  0  0  0  0  0  0  0  0  0  0  0
   -5.6490  -31.8330   15.7270 C   0  0  0  0  0  0  0  0  0  0  0  0
   -6.4320  -33.1550   15.6610 C   0  0  0  0  0  0  0  0  0  0  0  0
   -6.4760  -33.7110   14.2250 C   0  0  0  0  0  0  0  0  0  0  0  0
   -7.9740  -33.7150   13.8370 C   0  0  0  0  0  0  0  0  0  0  0  0
   -2.9080  -30.7730   26.7130 C   0  0  1  0  0  0  0  0  0  0  0  0
   -5.4750  -32.3120   17.9720 N   0  0  0  0  0  0  0  0  0  0  0  0
   -2.5090  -25.0940   26.3210 O   0  0  0  0  0  0  0  0  0  0  0  0
   -3.4110  -32.6490   21.3150 O   0  0  0  0  0  0  0  0  0  0  0  0
   -3.2090  -32.9250   28.3130 O   0  0  0  0  0  0  0  0  0  0  0  0
  3  2  1  1
  4  3  1  0
  5  3  1  0
  6  5  1  6
  6  1  1  0
  7  1  1  0
 10  6  1  0
 12 11  1  0
 13 12  1  0
  4 17  1  6
 18  7  1  0
 18 19  1  1
 19  8  1  0
 20  8  1  0
 20  9  1  0
 21 18  1  0
 21  9  1  0
 22 10  1  0
 22  6  1  0
 23 14  1  0
 23 11  1  0
 24 17  1  0
 25 14  1  0
 25 13  1  0
 15 26  1  1
 27 15  1  0
 28 16  1  0
 28 15  1  0
 29 24  1  0
 29  2  1  0
 31 30  1  0
 32 31  1  0
 33 32  1  0
 34 33  1  0
 35 23  1  6
 35  4  1  0
 35  1  1  0
 36 30  1  0
 36 16  1  0
 36 27  1  0
 37 29  1  0
 38 26  1  0
 38 13  1  0
  7 39  1  1
M  END
$$$$
8AQC
     RDKit          3D

 42 43  0  0  0  0  0  0  0  0999 V2000
   28.0080   -7.9200   14.4880 N   0  0  0  0  0  0  0  0  0  0  0  0
   27.0560   -9.0660   14.4000 C   0  0  2  0  0  0  0  0  0  0  0  0
   27.7340  -10.2930   13.7940 C   0  0  0  0  0  0  0  0  0  0  0  0
   28.5930  -10.1910   12.9170 O   0  0  0  0  0  0  0  0  0  0  0  0
   25.7950   -8.6870   13.6000 C   0  0  0  0  0  0  0  0  0  0  0  0
   26.0730   -8.1470   12.2170 C   0  0  0  0  0  0  0  0  0  0  0  0
   26.1330   -9.0010   11.1120 C   0  0  0  0  0  0  0  0  0  0  0  0
   26.2560   -6.7750   12.0090 C   0  0  0  0  0  0  0  0  0  0  0  0
   26.3890   -8.4960    9.8370 C   0  0  0  0  0  0  0  0  0  0  0  0
   26.5140   -6.2710   10.7390 C   0  0  0  0  0  0  0  0  0  0  0  0
   26.5770   -7.1300    9.6510 C   0  0  0  0  0  0  0  0  0  0  0  0
   27.3840  -11.5080   14.2490 N   0  0  0  0  0  0  0  0  0  0  0  0
   27.9800  -12.7160   13.6930 C   0  0  2  0  0  0  0  0  0  0  0  0
   27.3970  -13.0540   12.3100 C   0  0  0  0  0  0  0  0  0  0  0  0
   26.3110  -12.6070   11.9680 O   0  0  0  0  0  0  0  0  0  0  0  0
   27.6430  -13.7710   14.7520 C   0  0  0  0  0  0  0  0  0  0  0  0
   26.3290  -13.3020   15.3250 C   0  0  0  0  0  0  0  0  0  0  0  0
   26.4020  -11.7930   15.3050 C   0  0  0  0  0  0  0  0  0  0  0  0
   28.1370  -13.8520   11.5540 N   0  0  0  0  0  0  0  0  0  0  0  0
   27.7510  -14.2730   10.2370 C   0  0  2  0  0  0  0  0  0  0  0  0
   26.6270  -15.2880   10.2820 C   0  0  0  0  0  0  0  0  0  0  0  0
   26.7010  -16.2900   11.0290 O   0  0  0  0  0  0  0  0  0  0  0  0
   28.9400  -14.8890    9.5270 C   0  0  0  0  0  0  0  0  0  0  0  0
   25.6080  -15.0410    9.4510 N   0  0  0  0  0  0  0  0  0  0  0  0
   24.5300  -16.0080    9.1220 C   0  0  1  0  0  0  0  0  0  0  0  0
   23.2430  -15.7050    9.8910 C   0  0  1  0  0  0  0  0  0  0  0  0
   23.4060  -15.8660   11.3860 C   0  0  0  0  0  0  0  0  0  0  0  0
   22.9070  -14.3210    9.5730 O   0  0  0  0  0  0  0  0  0  0  0  0
   21.4870  -13.6690    9.9490 P   0  0  0  0  0  0  0  0  0  0  0  0
   21.4300  -12.4540    9.0410 O   0  0  0  0  0  0  0  0  0  0  0  0
   21.5200  -13.3030   11.4200 O   0  0  0  0  0  0  0  0  0  0  0  0
   20.4250  -14.7050    9.6140 O   0  0  0  0  0  0  0  0  0  0  0  0
   24.2880  -16.0160    7.6170 C   0  0  0  0  0  0  0  0  0  0  0  0
   24.6490  -15.0330    6.9480 O   0  0  0  0  0  0  0  0  0  0  0  0
   23.7250  -17.1090    7.1030 N   0  0  0  0  0  0  0  0  0  0  0  0
   23.4200  -17.1790    5.6840 C   0  0  2  0  0  0  0  0  0  0  0  0
   21.9820  -17.4320    5.3880 C   0  0  0  0  0  0  0  0  0  0  0  0
   21.2280  -17.8630    6.2680 O   0  0  0  0  0  0  0  0  0  0  0  0
   24.2790  -18.2260    4.9690 C   0  0  0  0  0  0  0  0  0  0  0  0
   25.7360  -17.8220    5.0500 C   0  0  0  0  0  0  0  0  0  0  0  0
   24.0400  -19.6320    5.5260 C   0  0  0  0  0  0  0  0  0  0  0  0
   21.5890  -17.1900    4.2360 O   0  0  0  0  0  0  0  0  0  0  0  0
  2  1  1  6
  3  2  1  0
  4  3  2  0
  5  2  1  0
  6  5  1  0
  7  6  2  0
  8  6  1  0
  9  7  1  0
 10  8  2  0
 11 10  1  0
 11  9  2  0
 12  3  1  0
 13 12  1  0
 13 14  1  6
 15 14  2  0
 16 13  1  0
 17 16  1  0
 18 17  1  0
 18 12  1  0
 19 14  1  0
 20 19  1  0
 21 20  1  0
 22 21  2  0
 20 23  1  1
 24 21  1  0
 25 24  1  6
 26 25  1  0
 26 27  1  1
 28 26  1  0
 29 28  1  0
 30 29  1  0
 31 29  1  0
 32 29  1  0
 33 25  1  0
 34 33  1  0
 35 33  1  0
 36 35  1  1
 37 36  1  0
 38 37  2  0
 39 36  1  0
 40 39  1  0
 41 39  1  0
 42 37  1  0
M  END
$$$$
8ARX
     RDKit          3D

 42 43  0  0  0  0  0  0  0  0999 V2000
  -12.7070   -7.9810   14.7010 N   0  0  0  0  0  0  0  0  0  0  0  0
  -13.6780   -9.1110   14.7050 C   0  0  2  0  0  0  0  0  0  0  0  0
  -13.0650  -10.3330   14.0310 C   0  0  0  0  0  0  0  0  0  0  0  0
  -12.2240  -10.2290   13.1400 O   0  0  0  0  0  0  0  0  0  0  0  0
  -15.0230   -8.7190   14.0500 C   0  0  0  0  0  0  0  0  0  0  0  0
  -14.9080   -8.1000   12.6860 C   0  0  0  0  0  0  0  0  0  0  0  0
  -14.8570   -8.8970   11.5360 C   0  0  0  0  0  0  0  0  0  0  0  0
  -14.8900   -6.7140   12.5340 C   0  0  0  0  0  0  0  0  0  0  0  0
  -14.7440   -8.3190   10.2770 C   0  0  0  0  0  0  0  0  0  0  0  0
  -14.7750   -6.1310   11.2710 C   0  0  0  0  0  0  0  0  0  0  0  0
  -14.7090   -6.9370   10.1440 C   0  0  0  0  0  0  0  0  0  0  0  0
  -13.4350  -11.5500   14.4510 N   0  0  0  0  0  0  0  0  0  0  0  0
  -12.8630  -12.7440   13.8420 C   0  0  2  0  0  0  0  0  0  0  0  0
  -13.4450  -13.0770   12.4640 C   0  0  0  0  0  0  0  0  0  0  0  0
  -14.5140  -12.6190   12.0790 O   0  0  0  0  0  0  0  0  0  0  0  0
  -13.1860  -13.8070   14.8860 C   0  0  0  0  0  0  0  0  0  0  0  0
  -14.5230  -13.3730   15.4270 C   0  0  0  0  0  0  0  0  0  0  0  0
  -14.4390  -11.8620   15.4820 C   0  0  0  0  0  0  0  0  0  0  0  0
  -12.7310  -13.9170   11.7460 N   0  0  0  0  0  0  0  0  0  0  0  0
  -13.1050  -14.2760   10.4040 C   0  0  2  0  0  0  0  0  0  0  0  0
  -14.2120  -15.3250   10.3950 C   0  0  0  0  0  0  0  0  0  0  0  0
  -14.1590  -16.2980   11.1190 O   0  0  0  0  0  0  0  0  0  0  0  0
  -11.8940  -14.8480    9.6820 C   0  0  0  0  0  0  0  0  0  0  0  0
  -15.2070  -15.0740    9.5500 N   0  0  0  0  0  0  0  0  0  0  0  0
  -16.2700  -16.0320    9.1860 C   0  0  1  0  0  0  0  0  0  0  0  0
  -17.5810  -15.7400    9.9330 C   0  0  1  0  0  0  0  0  0  0  0  0
  -17.4240  -15.8860   11.4270 C   0  0  0  0  0  0  0  0  0  0  0  0
  -17.9270  -14.3620    9.6120 O   0  0  0  0  0  0  0  0  0  0  0  0
  -19.3470  -13.6970    9.9580 P   0  0  0  0  0  0  0  0  0  0  0  0
  -19.4070  -12.4910    9.0510 O   0  0  0  0  0  0  0  0  0  0  0  0
  -19.3550  -13.3580   11.4310 O   0  0  0  0  0  0  0  0  0  0  0  0
  -20.3900  -14.7350    9.6410 O   0  0  0  0  0  0  0  0  0  0  0  0
  -16.4700  -16.0310    7.6720 C   0  0  0  0  0  0  0  0  0  0  0  0
  -16.0800  -15.0600    7.0340 O   0  0  0  0  0  0  0  0  0  0  0  0
  -17.0590  -17.1040    7.1460 N   0  0  0  0  0  0  0  0  0  0  0  0
  -17.3420  -17.2140    5.7340 C   0  0  2  0  0  0  0  0  0  0  0  0
  -18.7740  -17.5180    5.4350 C   0  0  0  0  0  0  0  0  0  0  0  0
  -19.5560  -17.9160    6.3250 O   0  0  0  0  0  0  0  0  0  0  0  0
  -16.4480  -18.2400    5.0430 C   0  0  0  0  0  0  0  0  0  0  0  0
  -15.0180  -17.8310    5.1610 C   0  0  0  0  0  0  0  0  0  0  0  0
  -16.6750  -19.6300    5.5760 C   0  0  0  0  0  0  0  0  0  0  0  0
  -19.1470  -17.3740    4.2580 O   0  0  0  0  0  0  0  0  0  0  0  0
  2  1  1  6
  3  2  1  0
  4  3  2  0
  5  2  1  0
  6  5  1  0
  7  6  2  0
  8  6  1  0
  9  7  1  0
 10  8  2  0
 11  9  2  0
 11 10  1  0
 12  3  1  0
 13 12  1  0
 13 14  1  6
 15 14  2  0
 16 13  1  0
 17 16  1  0
 18 17  1  0
 18 12  1  0
 19 14  1  0
 20 19  1  0
 21 20  1  0
 22 21  2  0
 20 23  1  1
 24 21  1  0
 25 24  1  6
 26 25  1  0
 26 27  1  1
 28 26  1  0
 29 28  1  0
 30 29  1  0
 31 29  1  0
 32 29  1  0
 33 25  1  0
 34 33  1  0
 35 33  1  0
 36 35  1  1
 37 36  1  0
 38 37  2  0
 39 36  1  0
 40 39  1  0
 41 39  1  0
 42 37  1  0
M  END
$$$$
8ARO
     RDKit          3D

 42 43  0  0  0  0  0  0  0  0999 V2000
  -12.6870   -7.9290   14.6430 N   0  0  0  0  0  0  0  0  0  0  0  0
  -13.6340   -9.0770   14.7670 C   0  0  2  0  0  0  0  0  0  0  0  0
  -13.1430  -10.2830   13.9640 C   0  0  0  0  0  0  0  0  0  0  0  0
  -12.3670  -10.1350   13.0220 O   0  0  0  0  0  0  0  0  0  0  0  0
  -15.0440   -8.6490   14.3320 C   0  0  0  0  0  0  0  0  0  0  0  0
  -15.1360   -8.2270   12.8950 C   0  0  0  0  0  0  0  0  0  0  0  0
  -14.8730   -6.9140   12.5250 C   0  0  0  0  0  0  0  0  0  0  0  0
  -15.4900   -9.1400   11.9080 C   0  0  0  0  0  0  0  0  0  0  0  0
  -14.9560   -6.5190   11.1980 C   0  0  0  0  0  0  0  0  0  0  0  0
  -15.5760   -8.7520   10.5810 C   0  0  0  0  0  0  0  0  0  0  0  0
  -15.3100   -7.4380   10.2240 C   0  0  0  0  0  0  0  0  0  0  0  0
  -13.5820  -11.5170   14.3020 N   0  0  0  0  0  0  0  0  0  0  0  0
  -13.0340  -12.7250   13.6760 C   0  0  2  0  0  0  0  0  0  0  0  0
  -13.5880  -13.0690   12.2800 C   0  0  0  0  0  0  0  0  0  0  0  0
  -14.6460  -12.6200   11.9060 O   0  0  0  0  0  0  0  0  0  0  0  0
  -13.3900  -13.7970   14.7140 C   0  0  0  0  0  0  0  0  0  0  0  0
  -14.6940  -13.3230   15.3250 C   0  0  0  0  0  0  0  0  0  0  0  0
  -14.5960  -11.8120   15.3300 C   0  0  0  0  0  0  0  0  0  0  0  0
  -12.8630  -13.9180   11.5390 N   0  0  0  0  0  0  0  0  0  0  0  0
  -13.2360  -14.2850   10.1980 C   0  0  2  0  0  0  0  0  0  0  0  0
  -14.3590  -15.3140   10.2190 C   0  0  0  0  0  0  0  0  0  0  0  0
  -14.2860  -16.3010   10.9570 O   0  0  0  0  0  0  0  0  0  0  0  0
  -12.0510  -14.8900    9.4380 C   0  0  0  0  0  0  0  0  0  0  0  0
  -15.3630  -15.0900    9.3700 N   0  0  0  0  0  0  0  0  0  0  0  0
  -16.4370  -16.0560    9.0470 C   0  0  1  0  0  0  0  0  0  0  0  0
  -17.7440  -15.7690    9.8020 C   0  0  1  0  0  0  0  0  0  0  0  0
  -17.6130  -15.9720   11.2930 C   0  0  0  0  0  0  0  0  0  0  0  0
  -18.0730  -14.3710    9.5280 O   0  0  0  0  0  0  0  0  0  0  0  0
  -19.5170  -13.7470    9.8870 P   0  0  0  0  0  0  0  0  0  0  0  0
  -19.5370  -12.5260    8.9670 O   0  0  0  0  0  0  0  0  0  0  0  0
  -19.4730  -13.4030   11.3580 O   0  0  0  0  0  0  0  0  0  0  0  0
  -20.5620  -14.7750    9.5620 O   0  0  0  0  0  0  0  0  0  0  0  0
  -16.6750  -16.0640    7.5400 C   0  0  0  0  0  0  0  0  0  0  0  0
  -16.3340  -15.0570    6.8750 O   0  0  0  0  0  0  0  0  0  0  0  0
  -17.2710  -17.1460    7.0450 N   0  0  0  0  0  0  0  0  0  0  0  0
  -17.5820  -17.2570    5.6210 C   0  0  2  0  0  0  0  0  0  0  0  0
  -19.0230  -17.5720    5.3280 C   0  0  0  0  0  0  0  0  0  0  0  0
  -19.8290  -18.0090    6.1510 O   0  0  0  0  0  0  0  0  0  0  0  0
  -16.6870  -18.2850    4.9080 C   0  0  0  0  0  0  0  0  0  0  0  0
  -15.2460  -17.8270    4.9970 C   0  0  0  0  0  0  0  0  0  0  0  0
  -16.8920  -19.6590    5.5050 C   0  0  0  0  0  0  0  0  0  0  0  0
  -19.4080  -17.4030    4.1660 O   0  0  0  0  0  0  0  0  0  0  0  0
  2  1  1  6
  3  2  1  0
  4  3  2  0
  5  2  1  0
  6  5  1  0
  7  6  2  0
  8  6  1  0
  9  7  1  0
 10  8  2  0
 11 10  1  0
 11  9  2  0
 12  3  1  0
 13 12  1  0
 13 14  1  6
 15 14  2  0
 16 13  1  0
 17 16  1  0
 18 17  1  0
 18 12  1  0
 19 14  1  0
 20 19  1  0
 21 20  1  0
 22 21  2  0
 20 23  1  1
 24 21  1  0
 25 24  1  6
 26 25  1  0
 26 27  1  1
 28 26  1  0
 29 28  1  0
 30 29  1  0
 31 29  1  0
 32 29  1  0
 33 25  1  0
 34 33  1  0
 35 33  1  0
 36 35  1  1
 37 36  1  0
 38 37  2  0
 39 36  1  0
 40 39  1  0
 41 39  1  0
 42 37  1  0
M  END
$$$$
4MGC
     RDKit          3D

 61 60  0  0  0  0  0  0  0  0999 V2000
   -6.9400  -27.9110   17.9260 N   0  0  0  0  0  0  0  0  0  0  0  0
   -6.8860  -26.4580   18.0320 C   0  0  2  0  0  0  0  0  0  0  0  0
   -5.7770  -25.8870   17.1540 C   0  0  0  0  0  0  0  0  0  0  0  0
   -4.7020  -26.4780   17.0320 O   0  0  0  0  0  0  0  0  0  0  0  0
   -6.6780  -26.0330   19.4870 C   0  0  0  0  0  0  0  0  0  0  0  0
   -6.0460  -24.7370   16.5430 N   0  0  0  0  0  0  0  0  0  0  0  0
   -5.0890  -24.1010   15.6480 C   0  0  2  0  0  0  0  0  0  0  0  0
   -3.7240  -23.9370   16.3070 C   0  0  0  0  0  0  0  0  0  0  0  0
   -2.6920  -24.2150   15.6950 O   0  0  0  0  0  0  0  0  0  0  0  0
   -5.5860  -22.7240   15.1750 C   0  0  2  0  0  0  0  0  0  0  0  0
   -6.9270  -22.8580   14.4530 C   0  0  0  0  0  0  0  0  0  0  0  0
   -4.5620  -22.0760   14.2620 C   0  0  0  0  0  0  0  0  0  0  0  0
   -7.3480  -21.6000   13.7220 C   0  0  0  0  0  0  0  0  0  0  0  0
   -3.7230  -23.4930   17.5590 N   0  0  0  0  0  0  0  0  0  0  0  0
   -2.4800  -23.2850   18.2940 C   0  0  2  0  0  0  0  0  0  0  0  0
   -1.6370  -24.5570   18.3740 C   0  0  0  0  0  0  0  0  0  0  0  0
   -0.4250  -24.5180   18.1670 O   0  0  0  0  0  0  0  0  0  0  0  0
   -2.7670  -22.7410   19.6980 C   0  0  0  0  0  0  0  0  0  0  0  0
   -1.5510  -22.5100   20.5980 C   0  0  0  0  0  0  0  0  0  0  0  0
   -0.4990  -21.6670   19.8880 C   0  0  0  0  0  0  0  0  0  0  0  0
   -1.9620  -21.8640   21.9100 C   0  0  0  0  0  0  0  0  0  0  0  0
   -2.2790  -25.6820   18.6750 N   0  0  0  0  0  0  0  0  0  0  0  0
   -1.5740  -26.9590   18.7700 C   0  0  2  0  0  0  0  0  0  0  0  0
   -0.8980  -27.3060   17.4500 C   0  0  0  0  0  0  0  0  0  0  0  0
    0.2000  -27.8640   17.4300 O   0  0  0  0  0  0  0  0  0  0  0  0
   -2.5300  -28.0800   19.1830 C   0  0  0  0  0  0  0  0  0  0  0  0
   -1.5600  -26.9730   16.3460 N   0  0  0  0  0  0  0  0  0  0  0  0
   -1.0030  -27.2200   15.0220 C   0  0  2  0  0  0  0  0  0  0  0  0
    0.1790  -26.2940   14.7330 C   0  0  0  0  0  0  0  0  0  0  0  0
    1.1880  -26.7230   14.1760 O   0  0  0  0  0  0  0  0  0  0  0  0
   -2.0810  -27.0610   13.9470 C   0  0  0  0  0  0  0  0  0  0  0  0
    0.0520  -25.0270   15.1180 N   0  0  0  0  0  0  0  0  0  0  0  0
    1.1110  -24.0510   14.8760 C   0  0  2  0  0  0  0  0  0  0  0  0
    2.3530  -24.3540   15.7060 C   0  0  0  0  0  0  0  0  0  0  0  0
    3.4750  -24.0770   15.2830 O   0  0  0  0  0  0  0  0  0  0  0  0
    0.6200  -22.6270   15.1480 C   0  0  0  0  0  0  0  0  0  0  0  0
   -0.5250  -22.1270   14.2640 C   0  0  0  0  0  0  0  0  0  0  0  0
   -0.8880  -20.6930   14.6070 C   0  0  0  0  0  0  0  0  0  0  0  0
   -0.1560  -22.2470   12.7930 C   0  0  0  0  0  0  0  0  0  0  0  0
    2.1500  -24.9310   16.8860 N   0  0  0  0  0  0  0  0  0  0  0  0
    3.2660  -25.2880   17.7570 C   0  0  2  0  0  0  0  0  0  0  0  0
    3.9920  -26.5460   17.2740 C   0  0  0  0  0  0  0  0  0  0  0  0
    5.1120  -26.8250   17.7020 O   0  0  0  0  0  0  0  0  0  0  0  0
    2.7950  -25.4540   19.2080 C   0  0  0  0  0  0  0  0  0  0  0  0
    2.5160  -24.1530   19.9730 C   0  0  0  0  0  0  0  0  0  0  0  0
    1.7240  -24.4110   21.2530 C   0  0  0  0  0  0  0  0  0  0  0  0
    3.8130  -23.4080   20.2750 C   0  0  0  0  0  0  0  0  0  0  0  0
    3.3510  -27.2990   16.3830 N   0  0  0  0  0  0  0  0  0  0  0  0
    3.9580  -28.5020   15.8120 C   0  0  2  0  0  0  0  0  0  0  0  0
    4.5470  -28.2540   14.4290 C   0  0  0  0  0  0  0  0  0  0  0  0
    5.2620  -29.0990   13.8930 O   0  0  0  0  0  0  0  0  0  0  0  0
    2.9380  -29.6370   15.7230 C   0  0  0  0  0  0  0  0  0  0  0  0
    2.5390  -30.2330   17.0540 C   0  0  0  0  0  0  0  0  0  0  0  0
    1.8140  -31.5510   16.8880 C   0  0  0  0  0  0  0  0  0  0  0  0
    0.6280  -31.6690   17.2060 O   0  0  0  0  0  0  0  0  0  0  0  0
    2.5240  -32.5540   16.3830 N   0  0  0  0  0  0  0  0  0  0  0  0
    4.2300  -27.1020   13.8460 N   0  0  0  0  0  0  0  0  0  0  0  0
    4.7720  -26.7300   12.5460 C   0  0  2  0  0  0  0  0  0  0  0  0
    6.1900  -26.1890   12.6970 C   0  0  0  0  0  0  0  0  0  0  0  0
    6.4360  -25.0000   12.4940 O   0  0  0  0  0  0  0  0  0  0  0  0
    3.8770  -25.6920   11.8640 C   0  0  0  0  0  0  0  0  0  0  0  0
  2  1  1  0
  3  2  1  0
  4  3  2  0
  2  5  1  1
  6  3  1  0
  7  6  1  1
  8  7  1  0
  9  8  2  0
 10  7  1  0
 11 10  1  0
 10 12  1  6
 13 11  1  0
 14  8  1  0
 15 14  1  0
 16 15  1  0
 17 16  2  0
 15 18  1  1
 19 18  1  0
 20 19  1  0
 21 19  1  0
 22 16  1  0
 23 22  1  0
 24 23  1  0
 25 24  2  0
 23 26  1  6
 27 24  1  0
 28 27  1  0
 29 28  1  0
 30 29  2  0
 28 31  1  6
 32 29  1  0
 33 32  1  0
 34 33  1  0
 35 34  2  0
 33 36  1  1
 37 36  1  0
 38 37  1  0
 39 37  1  0
 40 34  1  0
 41 40  1  0
 42 41  1  0
 43 42  2  0
 41 44  1  1
 45 44  1  0
 46 45  1  0
 47 45  1  0
 48 42  1  0
 49 48  1  0
 50 49  1  0
 51 50  2  0
 49 52  1  6
 53 52  1  0
 54 53  1  0
 55 54  2  0
 56 54  1  0
 57 50  1  0
 58 57  1  0
 59 58  1  0
 60 59  2  0
 58 61  1  1
M  END
$$$$
4MG5
     RDKit          3D

 76 76  0  0  0  0  0  0  0  0999 V2000
   -0.4480  -26.1400   19.9820 N   0  0  0  0  0  0  0  0  0  0  0  0
   -0.4580  -24.7510   20.4410 C   0  0  2  0  0  0  0  0  0  0  0  0
    0.4730  -23.8840   19.5890 C   0  0  0  0  0  0  0  0  0  0  0  0
    1.6720  -24.1600   19.4800 O   0  0  0  0  0  0  0  0  0  0  0  0
   -0.0600  -24.6660   21.9160 C   0  0  0  0  0  0  0  0  0  0  0  0
   -0.1000  -22.8350   18.9930 N   0  0  0  0  0  0  0  0  0  0  0  0
    0.6410  -21.9920   18.0550 C   0  0  2  0  0  0  0  0  0  0  0  0
    1.8650  -21.3810   18.7250 C   0  0  0  0  0  0  0  0  0  0  0  0
    2.9780  -21.4250   18.1860 O   0  0  0  0  0  0  0  0  0  0  0  0
   -0.2830  -20.9110   17.4720 C   0  0  2  0  0  0  0  0  0  0  0  0
   -1.5430  -21.5640   16.8930 C   0  0  0  0  0  0  0  0  0  0  0  0
    0.4560  -20.0780   16.4310 C   0  0  0  0  0  0  0  0  0  0  0  0
   -2.5810  -20.5760   16.4170 C   0  0  0  0  0  0  0  0  0  0  0  0
    1.6740  -20.7990   19.9130 N   0  0  0  0  0  0  0  0  0  0  0  0
    2.7880  -20.2000   20.6430 C   0  0  2  0  0  0  0  0  0  0  0  0
    3.8600  -21.2360   20.9600 C   0  0  0  0  0  0  0  0  0  0  0  0
    5.0600  -20.9550   20.8480 O   0  0  0  0  0  0  0  0  0  0  0  0
    2.2700  -19.5470   21.9260 C   0  0  0  0  0  0  0  0  0  0  0  0
    3.2760  -19.2400   23.0310 C   0  0  0  0  0  0  0  0  0  0  0  0
    4.3400  -18.2590   22.5590 C   0  0  0  0  0  0  0  0  0  0  0  0
    2.5460  -18.7030   24.2600 C   0  0  0  0  0  0  0  0  0  0  0  0
    3.4360  -22.4310   21.3790 N   0  0  0  0  0  0  0  0  0  0  0  0
    4.3530  -23.5460   21.5940 C   0  0  2  0  0  0  0  0  0  0  0  0
    5.2220  -23.7810   20.3650 C   0  0  0  0  0  0  0  0  0  0  0  0
    6.4500  -23.9020   20.4590 O   0  0  0  0  0  0  0  0  0  0  0  0
    3.5400  -24.7980   21.9310 C   0  0  0  0  0  0  0  0  0  0  0  0
    4.3400  -25.9050   22.5360 C   0  0  0  0  0  0  0  0  0  0  0  0
    4.5630  -27.1000   21.8860 N   0  0  0  0  0  0  0  0  0  0  0  0
    4.9480  -26.0120   23.7410 C   0  0  0  0  0  0  0  0  0  0  0  0
    5.2870  -27.8900   22.6590 C   0  0  0  0  0  0  0  0  0  0  0  0
    5.5280  -27.2560   23.7920 N   0  0  0  0  0  0  0  0  0  0  0  0
    4.5850  -23.8330   19.1940 N   0  0  0  0  0  0  0  0  0  0  0  0
    5.3030  -24.0030   17.9370 C   0  0  2  0  0  0  0  0  0  0  0  0
    6.2840  -22.8600   17.7030 C   0  0  0  0  0  0  0  0  0  0  0  0
    7.4770  -23.0870   17.4700 O   0  0  0  0  0  0  0  0  0  0  0  0
    4.2980  -24.0930   16.7870 C   0  0  0  0  0  0  0  0  0  0  0  0
    4.8920  -24.4960   15.4550 C   0  0  0  0  0  0  0  0  0  0  0  0
    3.8040  -24.7040   14.4100 C   0  0  0  0  0  0  0  0  0  0  0  0
    3.2040  -23.4550   13.9470 N   0  0  0  0  0  0  0  0  0  0  0  0
    3.6960  -22.7170   12.9560 C   0  0  0  0  0  0  0  0  0  0  0  0
    4.8030  -23.1010   12.3350 N   0  0  0  0  0  0  0  0  0  0  0  0
    3.0860  -21.5950   12.5890 N   0  0  0  0  0  0  0  0  0  0  0  0
    5.7920  -21.6180   17.7690 N   0  0  0  0  0  0  0  0  0  0  0  0
    6.6140  -20.4630   17.4160 C   0  0  2  0  0  0  0  0  0  0  0  0
    7.8460  -20.3610   18.3040 C   0  0  0  0  0  0  0  0  0  0  0  0
    8.9210  -19.9630   17.8420 O   0  0  0  0  0  0  0  0  0  0  0  0
    5.7830  -19.1840   17.5010 C   0  0  0  0  0  0  0  0  0  0  0  0
    4.5500  -19.1530   16.5960 C   0  0  0  0  0  0  0  0  0  0  0  0
    3.8550  -17.7960   16.6270 C   0  0  0  0  0  0  0  0  0  0  0  0
    4.9340  -19.5310   15.1730 C   0  0  0  0  0  0  0  0  0  0  0  0
    7.7090  -20.7100   19.5850 N   0  0  0  0  0  0  0  0  0  0  0  0
    8.8710  -20.7230   20.4650 C   0  0  2  0  0  0  0  0  0  0  0  0
    9.8820  -21.7810   20.0470 C   0  0  0  0  0  0  0  0  0  0  0  0
   11.0910  -21.5800   20.2100 O   0  0  0  0  0  0  0  0  0  0  0  0
    8.4320  -20.9530   21.9120 C   0  0  0  0  0  0  0  0  0  0  0  0
    7.9830  -19.7270   22.7030 C   0  0  0  0  0  0  0  0  0  0  0  0
    7.2650  -20.1550   23.9790 C   0  0  0  0  0  0  0  0  0  0  0  0
    9.2080  -18.8850   23.0270 C   0  0  0  0  0  0  0  0  0  0  0  0
    9.4090  -22.9020   19.4940 N   0  0  0  0  0  0  0  0  0  0  0  0
   10.3060  -24.0070   19.1740 C   0  0  2  0  0  0  0  0  0  0  0  0
   11.1280  -23.7380   17.9150 C   0  0  0  0  0  0  0  0  0  0  0  0
   12.2970  -24.1290   17.8520 O   0  0  0  0  0  0  0  0  0  0  0  0
    9.5110  -25.3070   19.0390 C   0  0  0  0  0  0  0  0  0  0  0  0
    9.5530  -26.1880   20.2860 C   0  0  0  0  0  0  0  0  0  0  0  0
    8.9470  -27.5630   20.0470 C   0  0  0  0  0  0  0  0  0  0  0  0
    8.0920  -27.7290   19.1800 O   0  0  0  0  0  0  0  0  0  0  0  0
    9.3790  -28.5490   20.8240 N   0  0  0  0  0  0  0  0  0  0  0  0
   10.5670  -23.0750   16.9070 N   0  0  0  0  0  0  0  0  0  0  0  0
   11.4190  -22.7280   15.7670 C   0  0  2  0  0  0  0  0  0  0  0  0
   12.1460  -21.4210   16.0740 C   0  0  0  0  0  0  0  0  0  0  0  0
   11.5420  -20.3460   16.0540 O   0  0  0  0  0  0  0  0  0  0  0  0
   10.6490  -22.6160   14.4360 C   0  0  0  0  0  0  0  0  0  0  0  0
   10.0050  -23.9220   13.9770 C   0  0  0  0  0  0  0  0  0  0  0  0
    8.5500  -24.0620   14.3970 C   0  0  0  0  0  0  0  0  0  0  0  0
    7.9600  -23.0550   14.8500 O   0  0  0  0  0  0  0  0  0  0  0  0
    8.0260  -25.1990   14.3530 O   0  0  0  0  0  0  0  0  0  0  0  0
  2  1  1  0
  3  2  1  0
  4  3  2  0
  2  5  1  1
  6  3  1  0
  7  6  1  1
  8  7  1  0
  9  8  2  0
 10  7  1  0
 11 10  1  0
 10 12  1  6
 13 11  1  0
 14  8  1  0
 15 14  1  0
 16 15  1  0
 17 16  2  0
 15 18  1  1
 19 18  1  0
 20 19  1  0
 21 19  1  0
 22 16  1  0
 23 22  1  0
 24 23  1  0
 25 24  2  0
 23 26  1  6
 27 26  1  0
 28 27  1  0
 29 27  2  0
 30 28  2  0
 31 30  1  0
 31 29  1  0
 32 24  1  0
 33 32  1  0
 34 33  1  0
 35 34  2  0
 33 36  1  6
 37 36  1  0
 38 37  1  0
 39 38  1  0
 40 39  1  0
 41 40  1  0
 42 40  2  0
 43 34  1  0
 44 43  1  0
 45 44  1  0
 46 45  2  0
 44 47  1  1
 48 47  1  0
 49 48  1  0
 50 48  1  0
 51 45  1  0
 52 51  1  0
 53 52  1  0
 54 53  2  0
 52 55  1  1
 56 55  1  0
 57 56  1  0
 58 56  1  0
 59 53  1  0
 60 59  1  0
 61 60  1  0
 62 61  2  0
 60 63  1  6
 64 63  1  0
 65 64  1  0
 66 65  2  0
 67 65  1  0
 68 61  1  0
 69 68  1  0
 70 69  1  0
 71 70  2  0
 69 72  1  6
 73 72  1  0
 74 73  1  0
 75 74  2  0
 76 74  1  0
M  END
$$$$
2G44
     RDKit          3D

 79 79  0  0  0  0  0  0  0  0999 V2000
  -17.7760  -21.5110   -7.2490 N   0  0  0  0  0  0  0  0  0  0  0  0
  -17.6700  -19.9820   -6.9900 C   0  0  2  0  0  0  0  0  0  0  0  0
  -16.4550  -19.2780   -7.6250 C   0  0  0  0  0  0  0  0  0  0  0  0
  -15.2710  -19.6210   -7.3870 O   0  0  0  0  0  0  0  0  0  0  0  0
  -17.8740  -19.6500   -5.4900 C   0  0  0  0  0  0  0  0  0  0  0  0
  -17.6490  -20.8170   -4.5260 C   0  0  0  0  0  0  0  0  0  0  0  0
  -16.1930  -20.8590   -4.0850 C   0  0  0  0  0  0  0  0  0  0  0  0
  -15.7710  -19.5200   -3.4790 C   0  0  0  0  0  0  0  0  0  0  0  0
  -16.4370  -19.2640   -2.1350 N   0  0  0  0  0  0  0  0  0  0  0  0
  -16.7970  -18.3120   -8.4730 N   0  0  0  0  0  0  0  0  0  0  0  0
  -15.8820  -17.5120   -9.2870 C   0  0  2  0  0  0  0  0  0  0  0  0
  -14.7280  -16.8330   -8.5290 C   0  0  0  0  0  0  0  0  0  0  0  0
  -13.6540  -16.6000   -9.0950 O   0  0  0  0  0  0  0  0  0  0  0  0
  -16.6960  -16.4240  -10.0320 C   0  0  2  0  0  0  0  0  0  0  0  0
  -17.8260  -17.0800  -10.8380 C   0  0  0  0  0  0  0  0  0  0  0  0
  -15.7890  -15.5600  -10.9040 C   0  0  0  0  0  0  0  0  0  0  0  0
  -18.8950  -16.1120  -11.3130 C   0  0  0  0  0  0  0  0  0  0  0  0
  -14.9550  -16.5000   -7.2620 N   0  0  0  0  0  0  0  0  0  0  0  0
  -13.9030  -15.9210   -6.4440 C   0  0  2  0  0  0  0  0  0  0  0  0
  -12.7760  -16.9250   -6.2310 C   0  0  0  0  0  0  0  0  0  0  0  0
  -11.5960  -16.5900   -6.3460 O   0  0  0  0  0  0  0  0  0  0  0  0
  -14.4600  -15.4580   -5.0990 C   0  0  0  0  0  0  0  0  0  0  0  0
  -13.4530  -14.7600   -4.1820 C   0  0  0  0  0  0  0  0  0  0  0  0
  -12.8820  -13.5270   -4.8480 C   0  0  0  0  0  0  0  0  0  0  0  0
  -14.1010  -14.4000   -2.8600 C   0  0  0  0  0  0  0  0  0  0  0  0
  -13.1370  -18.1620   -5.9290 N   0  0  0  0  0  0  0  0  0  0  0  0
  -12.1230  -19.1590   -5.6530 C   0  0  2  0  0  0  0  0  0  0  0  0
  -11.2430  -19.3620   -6.9020 C   0  0  0  0  0  0  0  0  0  0  0  0
  -10.0160  -19.3210   -6.8010 O   0  0  0  0  0  0  0  0  0  0  0  0
  -12.7900  -20.4440   -5.0860 C   0  0  0  0  0  0  0  0  0  0  0  0
  -11.8200  -21.4720   -4.5810 C   0  0  0  0  0  0  0  0  0  0  0  0
  -10.4510  -21.3520   -4.7050 N   0  0  0  0  0  0  0  0  0  0  0  0
  -12.0320  -22.6490   -3.9410 C   0  0  0  0  0  0  0  0  0  0  0  0
   -9.8620  -22.4180   -4.1810 C   0  0  0  0  0  0  0  0  0  0  0  0
  -10.8000  -23.2200   -3.7090 N   0  0  0  0  0  0  0  0  0  0  0  0
  -11.8600  -19.5000   -8.0780 N   0  0  0  0  0  0  0  0  0  0  0  0
  -11.1010  -19.6730   -9.3230 C   0  0  2  0  0  0  0  0  0  0  0  0
  -10.1320  -18.5200   -9.5780 C   0  0  0  0  0  0  0  0  0  0  0  0
   -8.9320  -18.7330   -9.7250 O   0  0  0  0  0  0  0  0  0  0  0  0
  -12.0310  -19.8710  -10.5280 C   0  0  0  0  0  0  0  0  0  0  0  0
  -12.6230  -21.2740  -10.6370 C   0  0  0  0  0  0  0  0  0  0  0  0
  -12.9780  -21.6320  -12.0760 C   0  0  0  0  0  0  0  0  0  0  0  0
  -13.5320  -22.9820  -12.1890 N   0  0  0  0  0  0  0  0  0  0  0  0
  -13.7230  -23.6140  -13.3500 C   0  0  0  0  0  0  0  0  0  0  0  0
  -13.3850  -23.0240  -14.5030 N   0  0  0  0  0  0  0  0  0  0  0  0
  -14.2340  -24.8380  -13.3600 N   0  0  0  0  0  0  0  0  0  0  0  0
  -10.6590  -17.3010   -9.6220 N   0  0  0  0  0  0  0  0  0  0  0  0
   -9.8370  -16.1180   -9.8320 C   0  0  2  0  0  0  0  0  0  0  0  0
   -8.6680  -16.0430   -8.8660 C   0  0  0  0  0  0  0  0  0  0  0  0
   -7.5450  -15.7260   -9.2640 O   0  0  0  0  0  0  0  0  0  0  0  0
  -10.6750  -14.8560   -9.6800 C   0  0  0  0  0  0  0  0  0  0  0  0
  -11.3430  -14.3310  -10.9370 C   0  0  0  0  0  0  0  0  0  0  0  0
  -11.9520  -15.4770  -11.7260 C   0  0  0  0  0  0  0  0  0  0  0  0
  -12.3850  -13.2930  -10.5470 C   0  0  0  0  0  0  0  0  0  0  0  0
   -8.9390  -16.3080   -7.5920 N   0  0  0  0  0  0  0  0  0  0  0  0
   -7.9030  -16.2550   -6.5750 C   0  0  2  0  0  0  0  0  0  0  0  0
   -6.7650  -17.2380   -6.8330 C   0  0  0  0  0  0  0  0  0  0  0  0
   -5.5970  -16.8610   -6.8310 O   0  0  0  0  0  0  0  0  0  0  0  0
   -8.4950  -16.5130   -5.1990 C   0  0  0  0  0  0  0  0  0  0  0  0
   -8.7980  -15.2820   -4.3660 C   0  0  0  0  0  0  0  0  0  0  0  0
   -9.4140  -15.7200   -3.0640 C   0  0  0  0  0  0  0  0  0  0  0  0
   -7.5290  -14.5030   -4.1060 C   0  0  0  0  0  0  0  0  0  0  0  0
   -7.0950  -18.5030   -7.0490 N   0  0  0  0  0  0  0  0  0  0  0  0
   -6.0540  -19.5030   -7.2390 C   0  0  2  0  0  0  0  0  0  0  0  0
   -5.3640  -19.3550   -8.5930 C   0  0  0  0  0  0  0  0  0  0  0  0
   -4.5310  -20.1790   -8.9630 O   0  0  0  0  0  0  0  0  0  0  0  0
   -6.6210  -20.9100   -7.0820 C   0  0  0  0  0  0  0  0  0  0  0  0
   -7.6670  -21.2690   -8.1140 C   0  0  0  0  0  0  0  0  0  0  0  0
   -8.1540  -22.6950   -7.9660 C   0  0  0  0  0  0  0  0  0  0  0  0
   -7.5660  -23.4930   -7.2290 O   0  0  0  0  0  0  0  0  0  0  0  0
   -9.2350  -23.0270   -8.6680 N   0  0  0  0  0  0  0  0  0  0  0  0
   -5.7040  -18.2950   -9.3200 N   0  0  0  0  0  0  0  0  0  0  0  0
   -5.1650  -18.0800  -10.6570 C   0  0  2  0  0  0  0  0  0  0  0  0
   -4.4100  -16.7560  -10.7540 C   0  0  0  0  0  0  0  0  0  0  0  0
   -3.4610  -16.6240  -11.5270 O   0  0  0  0  0  0  0  0  0  0  0  0
   -6.2950  -18.1130  -11.6830 C   0  0  0  0  0  0  0  0  0  0  0  0
   -5.8500  -18.6700  -13.0120 C   0  0  0  0  0  0  0  0  0  0  0  0
   -6.7190  -18.9020  -13.8760 O   0  0  0  0  0  0  0  0  0  0  0  0
   -4.6310  -18.8790  -13.1940 O   0  0  0  0  0  0  0  0  0  0  0  0
  2  1  1  1
  3  2  1  0
  4  3  2  0
  5  2  1  0
  6  5  1  0
  7  6  1  0
  8  7  1  0
  9  8  1  0
 10  3  1  0
 11 10  1  1
 12 11  1  0
 13 12  2  0
 14 11  1  0
 15 14  1  0
 14 16  1  6
 17 15  1  0
 18 12  1  0
 19 18  1  0
 20 19  1  0
 21 20  2  0
 19 22  1  1
 23 22  1  0
 24 23  1  0
 25 23  1  0
 26 20  1  0
 27 26  1  0
 28 27  1  0
 29 28  2  0
 27 30  1  6
 31 30  1  0
 32 31  1  0
 33 31  2  0
 34 32  2  0
 35 33  1  0
 35 34  1  0
 36 28  1  0
 37 36  1  0
 38 37  1  0
 39 38  2  0
 37 40  1  6
 41 40  1  0
 42 41  1  0
 43 42  1  0
 44 43  1  0
 45 44  1  0
 46 44  2  0
 47 38  1  0
 48 47  1  0
 49 48  1  0
 50 49  2  0
 48 51  1  1
 52 51  1  0
 53 52  1  0
 54 52  1  0
 55 49  1  0
 56 55  1  0
 57 56  1  0
 58 57  2  0
 56 59  1  1
 60 59  1  0
 61 60  1  0
 62 60  1  0
 63 57  1  0
 64 63  1  0
 65 64  1  0
 66 65  2  0
 64 67  1  6
 68 67  1  0
 69 68  1  0
 70 69  2  0
 71 69  1  0
 72 65  1  0
 73 72  1  0
 74 73  1  0
 75 74  2  0
 73 76  1  6
 77 76  1  0
 78 77  2  0
 79 77  1  0
M  END
$$$$
5KCE
     RDKit          3D

 74 74  0  0  0  0  0  0  0  0999 V2000
    7.4630  -38.3760   -9.8640 N   0  0  0  0  0  0  0  0  0  0  0  0
    7.9620  -37.4930   -8.8150 C   0  0  2  0  0  0  0  0  0  0  0  0
    7.3200  -36.1090   -8.8940 C   0  0  0  0  0  0  0  0  0  0  0  0
    6.6160  -35.7940   -9.8540 O   0  0  0  0  0  0  0  0  0  0  0  0
    9.4830  -37.3670   -8.9060 C   0  0  0  0  0  0  0  0  0  0  0  0
    7.5560  -35.2840   -7.8790 N   0  0  0  0  0  0  0  0  0  0  0  0
    7.1120  -33.8980   -7.9330 C   0  0  2  0  0  0  0  0  0  0  0  0
    7.9490  -33.1330   -8.9530 C   0  0  0  0  0  0  0  0  0  0  0  0
    9.1000  -33.4890   -9.2080 O   0  0  0  0  0  0  0  0  0  0  0  0
    7.2010  -33.2370   -6.5520 C   0  0  0  0  0  0  0  0  0  0  0  0
    6.1790  -33.7560   -5.5600 C   0  0  0  0  0  0  0  0  0  0  0  0
    6.0110  -32.8110   -4.3770 C   0  0  0  0  0  0  0  0  0  0  0  0
    7.2130  -32.8470   -3.4480 C   0  0  0  0  0  0  0  0  0  0  0  0
    6.9220  -32.1760   -2.1500 N   0  0  0  0  0  0  0  0  0  0  0  0
    7.3680  -32.0930   -9.5450 N   0  0  0  0  0  0  0  0  0  0  0  0
    8.0720  -31.3090  -10.5550 C   0  0  2  0  0  0  0  0  0  0  0  0
    9.3150  -30.6730   -9.9680 C   0  0  0  0  0  0  0  0  0  0  0  0
   10.3750  -30.6520  -10.6030 O   0  0  0  0  0  0  0  0  0  0  0  0
    7.1830  -30.2080  -11.1490 C   0  0  2  0  0  0  0  0  0  0  0  0
    6.1100  -30.8240  -12.0380 C   0  0  0  0  0  0  0  0  0  0  0  0
    8.0140  -29.2240  -11.9600 C   0  0  0  0  0  0  0  0  0  0  0  0
    5.3860  -29.8170  -12.8690 C   0  0  0  0  0  0  0  0  0  0  0  0
    9.1790  -30.1620   -8.7480 N   0  0  0  0  0  0  0  0  0  0  0  0
   10.2920  -29.5560   -8.0420 C   0  0  2  0  0  0  0  0  0  0  0  0
   11.4380  -30.5600   -7.9290 C   0  0  0  0  0  0  0  0  0  0  0  0
   12.5930  -30.2230   -8.1800 O   0  0  0  0  0  0  0  0  0  0  0  0
    9.8420  -29.0710   -6.6590 C   0  0  0  0  0  0  0  0  0  0  0  0
   10.8720  -28.4110   -5.7430 C   0  0  0  0  0  0  0  0  0  0  0  0
   11.6890  -27.3580   -6.4810 C   0  0  0  0  0  0  0  0  0  0  0  0
   10.1750  -27.7920   -4.5550 C   0  0  0  0  0  0  0  0  0  0  0  0
   11.0990  -31.8000   -7.5820 N   0  0  0  0  0  0  0  0  0  0  0  0
   12.0820  -32.8770   -7.4990 C   0  0  2  0  0  0  0  0  0  0  0  0
   12.8400  -33.0380   -8.8150 C   0  0  0  0  0  0  0  0  0  0  0  0
   14.0610  -33.1880   -8.8180 O   0  0  0  0  0  0  0  0  0  0  0  0
   11.3990  -34.1960   -7.1170 C   0  0  0  0  0  0  0  0  0  0  0  0
   12.3400  -35.3520   -6.9690 C   0  0  0  0  0  0  0  0  0  0  0  0
   11.9100  -36.6620   -6.9470 N   0  0  0  0  0  0  0  0  0  0  0  0
   13.6860  -35.3980   -6.8260 C   0  0  0  0  0  0  0  0  0  0  0  0
   12.9490  -37.4640   -6.8040 C   0  0  0  0  0  0  0  0  0  0  0  0
   14.0390  -36.7230   -6.7290 N   0  0  0  0  0  0  0  0  0  0  0  0
   12.1180  -32.9850   -9.9300 N   0  0  0  0  0  0  0  0  0  0  0  0
   12.7290  -33.1910  -11.2400 C   0  0  2  0  0  0  0  0  0  0  0  0
   13.6360  -32.0290  -11.6290 C   0  0  0  0  0  0  0  0  0  0  0  0
   14.6810  -32.2280  -12.2470 O   0  0  0  0  0  0  0  0  0  0  0  0
   11.6530  -33.3940  -12.3110 C   0  0  0  0  0  0  0  0  0  0  0  0
   13.2350  -30.8160  -11.2640 N   0  0  0  0  0  0  0  0  0  0  0  0
   14.0020  -29.6290  -11.6220 C   0  0  2  0  0  0  0  0  0  0  0  0
   15.3190  -29.5700  -10.8450 C   0  0  0  0  0  0  0  0  0  0  0  0
   16.2970  -28.9860  -11.3070 O   0  0  0  0  0  0  0  0  0  0  0  0
   13.1740  -28.3640  -11.3810 C   0  0  0  0  0  0  0  0  0  0  0  0
   12.3410  -27.8740  -12.5740 C   0  0  0  0  0  0  0  0  0  0  0  0
   11.4440  -28.9690  -13.1320 C   0  0  0  0  0  0  0  0  0  0  0  0
   11.5090  -26.6550  -12.2130 C   0  0  0  0  0  0  0  0  0  0  0  0
   15.3320  -30.1790   -9.6640 N   0  0  0  0  0  0  0  0  0  0  0  0
   16.5580  -30.3370   -8.8870 C   0  0  2  0  0  0  0  0  0  0  0  0
   17.4370  -31.4390   -9.4740 C   0  0  0  0  0  0  0  0  0  0  0  0
   18.6500  -31.2740   -9.6080 O   0  0  0  0  0  0  0  0  0  0  0  0
   16.2330  -30.6530   -7.4270 C   0  0  0  0  0  0  0  0  0  0  0  0
   15.7480  -29.4790   -6.5780 C   0  0  0  0  0  0  0  0  0  0  0  0
   14.9890  -29.9870   -5.3620 C   0  0  0  0  0  0  0  0  0  0  0  0
   16.9240  -28.6240   -6.1500 C   0  0  0  0  0  0  0  0  0  0  0  0
   16.8060  -32.5540   -9.8440 N   0  0  0  0  0  0  0  0  0  0  0  0
   17.5020  -33.7270  -10.3780 C   0  0  2  0  0  0  0  0  0  0  0  0
   18.1420  -33.4760  -11.7440 C   0  0  0  0  0  0  0  0  0  0  0  0
   18.6650  -34.3950  -12.3730 O   0  0  0  0  0  0  0  0  0  0  0  0
   16.5370  -34.9130  -10.4690 C   0  0  0  0  0  0  0  0  0  0  0  0
   18.0870  -32.2280  -12.1980 N   0  0  0  0  0  0  0  0  0  0  0  0
   18.7540  -31.8210  -13.4250 C   0  0  2  0  0  0  0  0  0  0  0  0
   20.0770  -31.1240  -13.1100 C   0  0  0  0  0  0  0  0  0  0  0  0
   20.9080  -31.6510  -12.3650 O   0  0  0  0  0  0  0  0  0  0  0  0
   17.8470  -30.9050  -14.2520 C   0  0  0  0  0  0  0  0  0  0  0  0
   16.7980  -31.6750  -15.0380 C   0  0  0  0  0  0  0  0  0  0  0  0
   16.9940  -32.8870  -15.2630 O   0  0  0  0  0  0  0  0  0  0  0  0
   15.7840  -31.0670  -15.4420 O   0  0  0  0  0  0  0  0  0  0  0  0
  2  1  1  0
  3  2  1  0
  4  3  2  0
  2  5  1  6
  6  3  1  0
  7  6  1  0
  8  7  1  0
  9  8  2  0
  7 10  1  1
 11 10  1  0
 12 11  1  0
 13 12  1  0
 14 13  1  0
 15  8  1  0
 16 15  1  1
 17 16  1  0
 18 17  2  0
 19 16  1  0
 20 19  1  0
 19 21  1  6
 22 20  1  0
 23 17  1  0
 24 23  1  0
 25 24  1  0
 26 25  2  0
 24 27  1  1
 28 27  1  0
 29 28  1  0
 30 28  1  0
 31 25  1  0
 32 31  1  0
 33 32  1  0
 34 33  2  0
 32 35  1  6
 36 35  1  0
 37 36  1  0
 38 36  2  0
 39 37  2  0
 40 39  1  0
 40 38  1  0
 41 33  1  0
 42 41  1  0
 43 42  1  0
 44 43  2  0
 42 45  1  6
 46 43  1  0
 47 46  1  0
 48 47  1  0
 49 48  2  0
 47 50  1  1
 51 50  1  0
 52 51  1  0
 53 51  1  0
 54 48  1  0
 55 54  1  0
 56 55  1  0
 57 56  2  0
 55 58  1  1
 59 58  1  0
 60 59  1  0
 61 59  1  0
 62 56  1  0
 63 62  1  0
 64 63  1  0
 65 64  2  0
 63 66  1  6
 67 64  1  0
 68 67  1  0
 69 68  1  0
 70 69  2  0
 68 71  1  1
 72 71  1  0
 73 72  2  0
 74 72  1  0
M  END
$$$$
8BZF
     RDKit          3D

 76 77  0  0  0  0  0  0  0  0999 V2000
   12.8430    7.6880   14.7920 N   0  0  0  0  0  0  0  0  0  0  0  0
   13.7050    8.8680   14.8420 C   0  0  2  0  0  0  0  0  0  0  0  0
   13.0190   10.0680   14.1790 C   0  0  0  0  0  0  0  0  0  0  0  0
   12.1660    9.8960   13.3030 O   0  0  0  0  0  0  0  0  0  0  0  0
   15.0540    8.5670   14.1720 C   0  0  0  0  0  0  0  0  0  0  0  0
   14.9480    8.1840   12.7140 C   0  0  0  0  0  0  0  0  0  0  0  0
   14.6430    9.1320   11.7500 C   0  0  0  0  0  0  0  0  0  0  0  0
   15.1540    6.8740   12.3110 C   0  0  0  0  0  0  0  0  0  0  0  0
   14.5440    8.7830   10.4140 C   0  0  0  0  0  0  0  0  0  0  0  0
   15.0540    6.5160   10.9760 C   0  0  0  0  0  0  0  0  0  0  0  0
   14.7510    7.4710   10.0270 C   0  0  0  0  0  0  0  0  0  0  0  0
   13.8820    9.1050   15.7660 H   0  0  0  0  0  0  0  0  0  0  0  0
   15.6120    9.3580   14.2290 H   0  0  0  0  0  0  0  0  0  0  0  0
   15.4750    7.8290   14.6400 H   0  0  0  0  0  0  0  0  0  0  0  0
   14.5030   10.0150   12.0040 H   0  0  0  0  0  0  0  0  0  0  0  0
   15.3620    6.2260   12.9450 H   0  0  0  0  0  0  0  0  0  0  0  0
   14.3380    9.4290    9.7780 H   0  0  0  0  0  0  0  0  0  0  0  0
   15.1910    5.6330   10.7200 H   0  0  0  0  0  0  0  0  0  0  0  0
   14.6870    7.2340    9.1300 H   0  0  0  0  0  0  0  0  0  0  0  0
   13.3830   11.2770   14.5990 N   0  0  0  0  0  0  0  0  0  0  0  0
   12.8130   12.4800   13.9830 C   0  0  2  0  0  0  0  0  0  0  0  0
   13.4510   12.7770   12.6330 C   0  0  0  0  0  0  0  0  0  0  0  0
   14.5310   12.2880   12.2930 O   0  0  0  0  0  0  0  0  0  0  0  0
   13.1330   13.5840   14.9970 C   0  0  0  0  0  0  0  0  0  0  0  0
   14.4050   13.1250   15.6450 C   0  0  0  0  0  0  0  0  0  0  0  0
   14.3800   11.6050   15.6380 C   0  0  0  0  0  0  0  0  0  0  0  0
   11.8520   12.3980   13.8810 H   0  0  0  0  0  0  0  0  0  0  0  0
   13.2580   14.4310   14.5410 H   0  0  0  0  0  0  0  0  0  0  0  0
   12.4170   13.6580   15.6470 H   0  0  0  0  0  0  0  0  0  0  0  0
   15.1630   13.4550   15.1370 H   0  0  0  0  0  0  0  0  0  0  0  0
   14.4440   13.4600   16.5540 H   0  0  0  0  0  0  0  0  0  0  0  0
   15.2500   11.2480   15.4040 H   0  0  0  0  0  0  0  0  0  0  0  0
   14.1010   11.2620   16.5010 H   0  0  0  0  0  0  0  0  0  0  0  0
   12.7560   13.6060   11.8650 N   0  0  0  0  0  0  0  0  0  0  0  0
   13.1710   13.9000   10.5090 C   0  0  2  0  0  0  0  0  0  0  0  0
   14.2200   14.9900   10.4310 C   0  0  0  0  0  0  0  0  0  0  0  0
   14.1000   15.9920   11.1120 O   0  0  0  0  0  0  0  0  0  0  0  0
   11.9640   14.3010    9.6710 C   0  0  0  0  0  0  0  0  0  0  0  0
   12.0380   14.0120   12.1100 H   0  0  0  0  0  0  0  0  0  0  0  0
   13.5700   13.0930   10.1480 H   0  0  0  0  0  0  0  0  0  0  0  0
   12.2570   14.4940    8.7670 H   0  0  0  0  0  0  0  0  0  0  0  0
   11.3280   13.5690    9.6620 H   0  0  0  0  0  0  0  0  0  0  0  0
   11.5560   15.0890   10.0620 H   0  0  0  0  0  0  0  0  0  0  0  0
   15.2250   14.7750    9.5760 N   0  0  0  0  0  0  0  0  0  0  0  0
   16.2810   15.7580    9.2910 C   0  0  1  0  0  0  0  0  0  0  0  0
   17.5910   15.3910   10.0240 C   0  0  1  0  0  0  0  0  0  0  0  0
   17.3570   15.5830   11.5150 C   0  0  2  0  0  0  0  0  0  0  0  0
   17.8210   14.0570    9.5940 O   0  0  0  0  0  0  0  0  0  0  0  0
   19.2870   13.4570    9.9700 P   0  0  0  0  0  0  0  0  0  0  0  0
   19.3890   12.1510    9.0610 O   0  0  0  0  0  0  0  0  0  0  0  0
   19.2740   13.0980   11.4310 O   0  0  0  0  0  0  0  0  0  0  0  0
   20.4050   14.5100    9.5440 O   0  0  0  0  0  0  0  0  0  0  0  0
   16.4660   15.7880    7.7720 C   0  0  0  0  0  0  0  0  0  0  0  0
   16.0820   14.8510    7.0550 O   0  0  0  0  0  0  0  0  0  0  0  0
   16.0440   16.6510    9.6190 H   0  0  0  0  0  0  0  0  0  0  0  0
   18.4720   15.9960    9.8090 H   0  0  0  0  0  0  0  0  0  0  0  0
   18.2840   15.3980   12.0560 H   0  0  0  0  0  0  0  0  0  0  0  0
   16.5920   14.8850   11.8560 H   0  0  0  0  0  0  0  0  0  0  0  0
   17.0250   16.6040   11.7030 H   0  0  0  0  0  0  0  0  0  0  0  0
   17.0080   16.8800    7.2590 N   0  0  0  0  0  0  0  0  0  0  0  0
   17.2300   16.9780    5.8240 C   0  0  2  0  0  0  0  0  0  0  0  0
   18.6610   17.3720    5.5110 C   0  0  0  0  0  0  0  0  0  0  0  0
   19.4480   17.7160    6.4140 O   0  0  0  0  0  0  0  0  0  0  0  0
   16.2930   17.9930    5.1390 C   0  0  0  0  0  0  0  0  0  0  0  0
   14.8740   17.5300    5.1990 C   0  0  0  0  0  0  0  0  0  0  0  0
   16.4520   19.3830    5.7660 C   0  0  0  0  0  0  0  0  0  0  0  0
   19.0330   17.3610    4.3230 O   0  0  0  0  0  0  0  0  0  0  0  0
   17.2530   17.5680    7.7130 H   0  0  0  0  0  0  0  0  0  0  0  0
   17.0460   16.0950    5.4690 H   0  0  0  0  0  0  0  0  0  0  0  0
   16.5380   18.0620    4.2030 H   0  0  0  0  0  0  0  0  0  0  0  0
   14.8570   16.5990    5.4690 H   0  0  0  0  0  0  0  0  0  0  0  0
   14.3930   18.0710    5.8450 H   0  0  0  0  0  0  0  0  0  0  0  0
   14.4730   17.6280    4.3220 H   0  0  0  0  0  0  0  0  0  0  0  0
   16.6870   19.2830    6.7010 H   0  0  0  0  0  0  0  0  0  0  0  0
   17.1540   19.8620    5.2980 H   0  0  0  0  0  0  0  0  0  0  0  0
   15.6130   19.8640    5.6850 H   0  0  0  0  0  0  0  0  0  0  0  0
  2  1  1  0
  3  2  1  0
  4  3  2  0
  5  2  1  0
  6  5  1  0
  7  6  2  0
  8  6  1  0
  9  7  1  0
 10  8  2  0
 11  9  2  0
 11 10  1  0
  2 12  1  1
 13  5  1  0
 14  5  1  0
 15  7  1  0
 16  8  1  0
 17  9  1  0
 18 10  1  0
 19 11  1  0
 20  3  1  0
 21 20  1  0
 22 21  1  0
 23 22  2  0
 24 21  1  0
 25 24  1  0
 26 25  1  0
 26 20  1  0
 21 27  1  6
 28 24  1  0
 29 24  1  0
 30 25  1  0
 31 25  1  0
 32 26  1  0
 33 26  1  0
 34 22  1  0
 35 34  1  0
 36 35  1  0
 37 36  2  0
 38 35  1  0
 39 34  1  0
 35 40  1  6
 41 38  1  0
 42 38  1  0
 43 38  1  0
 44 36  1  0
 45 44  1  0
 46 45  1  0
 47 46  1  0
 48 46  1  0
 49 48  1  0
 50 49  1  0
 51 49  1  0
 52 49  1  0
 53 45  1  0
 54 53  1  0
 45 55  1  1
 46 56  1  6
 47 57  1  1
 58 47  1  0
 59 47  1  0
 60 53  1  0
 61 60  1  0
 62 61  1  0
 63 62  2  0
 64 61  1  0
 65 64  1  0
 66 64  1  0
 67 62  1  0
 68 60  1  0
 61 69  1  6
 70 64  1  0
 71 65  1  0
 72 65  1  0
 73 65  1  0
 74 66  1  0
 75 66  1  0
 76 66  1  0
M  END
$$$$
5U2B
     RDKit          3D

 26 30  0  0  0  0  0  0  0  0999 V2000
   16.5630    9.5930   15.7810 C   0  0  0  0  0  0  0  0  0  0  0  0
   16.5210    8.5950   16.9450 C   0  0  2  0  0  0  0  0  0  0  0  0
   17.3340    7.3540   16.5690 C   0  0  0  0  0  0  0  0  0  0  0  0
   16.6190    6.6040   15.4490 C   0  0  0  0  0  0  0  0  0  0  0  0
   15.3110    6.0630   16.0430 C   0  0  2  0  0  0  0  0  0  0  0  0
   14.6660    5.0140   15.3650 C   0  0  0  0  0  0  0  0  0  0  0  0
   15.4340    4.0970   14.6690 C   0  0  0  0  0  0  0  0  0  0  0  0
   14.8190    3.0600   14.0010 C   0  0  0  0  0  0  0  0  0  0  0  0
   13.4460    2.9260   14.0170 C   0  0  0  0  0  0  0  0  0  0  0  0
   12.9150    1.9110   13.3580 O   0  0  0  0  0  0  0  0  0  0  0  0
   12.6530    3.8080   14.6910 C   0  0  0  0  0  0  0  0  0  0  0  0
   13.2640    4.8680   15.3760 C   0  0  0  0  0  0  0  0  0  0  0  0
   12.4290    5.7600   16.0610 C   0  0  0  0  0  0  0  0  0  0  0  0
   13.1270    6.7270   17.0310 C   0  0  0  0  0  0  0  0  0  0  0  0
   14.4190    7.2410   16.4380 C   0  0  1  0  0  0  0  0  0  0  0  0
   15.1890    8.0640   17.4480 C   0  0  2  0  0  0  0  0  0  0  0  0
   14.5260    9.3290   17.8640 C   0  0  0  0  0  0  0  0  0  0  0  0
   15.5890    9.7760   18.8210 C   0  0  0  0  0  0  0  0  0  0  0  0
   16.9050    9.3010   18.2220 C   0  0  2  0  0  0  0  0  0  0  0  0
   18.0400   10.2350   18.1720 N   0  0  0  0  0  0  0  0  0  0  0  0
   19.3620   10.0160   18.1820 C   0  0  0  0  0  0  0  0  0  0  0  0
   19.7730    8.7070   18.4990 C   0  0  0  0  0  0  0  0  0  0  0  0
   21.1360    8.4000   18.5270 C   0  0  0  0  0  0  0  0  0  0  0  0
   22.0900    9.3990   18.2440 C   0  0  0  0  0  0  0  0  0  0  0  0
   21.7110   10.6960   17.9320 C   0  0  0  0  0  0  0  0  0  0  0  0
   20.3510   10.9910   17.9080 C   0  0  0  0  0  0  0  0  0  0  0  0
  2  1  1  6
  3  2  1  0
  4  3  1  0
  5  4  1  6
  6  5  1  0
  7  6  1  0
  8  7  1  0
  9  8  1  0
 10  9  1  0
 11  9  1  0
 12 11  1  0
 12  6  1  0
 13 12  1  0
 14 13  1  0
 15  5  1  0
 15 14  1  1
 16 15  1  0
 16  2  1  0
 16 17  1  6
 18 17  1  0
 19 18  1  0
 19  2  1  0
 19 20  1  6
 21 20  1  0
 22 21  1  0
 23 22  1  0
 24 23  1  0
 25 24  1  0
 26 25  1  0
 26 21  1  0
M  END
$$$$
8BXN
     RDKit          3D

 71 72  0  0  0  0  0  0  0  0999 V2000
  -12.7480    7.8100  -14.6530 N   0  0  0  0  0  0  0  0  0  0  0  0
  -13.6400    8.9710  -14.6470 C   0  0  2  0  0  0  0  0  0  0  0  0
  -12.9420   10.1830  -14.0220 C   0  0  0  0  0  0  0  0  0  0  0  0
  -12.0540   10.0260  -13.1770 O   0  0  0  0  0  0  0  0  0  0  0  0
  -14.9460    8.6340  -13.9030 C   0  0  0  0  0  0  0  0  0  0  0  0
  -14.7530    8.1180  -12.4950 C   0  0  0  0  0  0  0  0  0  0  0  0
  -14.4790    8.9870  -11.4440 C   0  0  0  0  0  0  0  0  0  0  0  0
  -14.8540    6.7560  -12.2220 C   0  0  0  0  0  0  0  0  0  0  0  0
  -14.3070    8.5070  -10.1540 C   0  0  0  0  0  0  0  0  0  0  0  0
  -14.6780    6.2700  -10.9340 C   0  0  0  0  0  0  0  0  0  0  0  0
  -14.4090    7.1460   -9.8990 C   0  0  0  0  0  0  0  0  0  0  0  0
  -13.8780    9.2090  -15.5570 H   0  0  0  0  0  0  0  0  0  0  0  0
  -15.4860    9.4380  -13.8480 H   0  0  0  0  0  0  0  0  0  0  0  0
  -15.4190    7.9500  -14.4030 H   0  0  0  0  0  0  0  0  0  0  0  0
  -14.4110    9.9000  -11.6080 H   0  0  0  0  0  0  0  0  0  0  0  0
  -15.0430    6.1630  -12.9130 H   0  0  0  0  0  0  0  0  0  0  0  0
  -14.1230    9.0970   -9.4590 H   0  0  0  0  0  0  0  0  0  0  0  0
  -14.7400    5.3580  -10.7680 H   0  0  0  0  0  0  0  0  0  0  0  0
  -14.2970    6.8240   -9.0340 H   0  0  0  0  0  0  0  0  0  0  0  0
  -13.3300   11.3870  -14.4400 N   0  0  0  0  0  0  0  0  0  0  0  0
  -12.7360   12.5950  -13.8620 C   0  0  2  0  0  0  0  0  0  0  0  0
  -13.3290   12.9110  -12.4970 C   0  0  0  0  0  0  0  0  0  0  0  0
  -14.4020   12.4370  -12.1150 O   0  0  0  0  0  0  0  0  0  0  0  0
  -13.0810   13.6770  -14.8910 C   0  0  0  0  0  0  0  0  0  0  0  0
  -14.3640   13.2230  -15.5000 C   0  0  0  0  0  0  0  0  0  0  0  0
  -14.3200   11.7100  -15.4910 C   0  0  0  0  0  0  0  0  0  0  0  0
  -11.7720   12.5170  -13.7850 H   0  0  0  0  0  0  0  0  0  0  0  0
  -13.1890   14.5330  -14.4480 H   0  0  0  0  0  0  0  0  0  0  0  0
  -12.3790   13.7350  -15.5590 H   0  0  0  0  0  0  0  0  0  0  0  0
  -15.1090   13.5480  -14.9710 H   0  0  0  0  0  0  0  0  0  0  0  0
  -14.4300   13.5580  -16.4080 H   0  0  0  0  0  0  0  0  0  0  0  0
  -15.1900   11.3430  -15.2660 H   0  0  0  0  0  0  0  0  0  0  0  0
  -14.0290   11.3700  -16.3520 H   0  0  0  0  0  0  0  0  0  0  0  0
  -12.6010   13.7310  -11.7480 N   0  0  0  0  0  0  0  0  0  0  0  0
  -13.0130   14.0940  -10.4070 C   0  0  2  0  0  0  0  0  0  0  0  0
  -14.1210   15.1560  -10.3790 C   0  0  0  0  0  0  0  0  0  0  0  0
  -14.0510   16.1640  -11.0880 O   0  0  0  0  0  0  0  0  0  0  0  0
  -11.8150   14.5980   -9.6160 C   0  0  0  0  0  0  0  0  0  0  0  0
  -11.8610   14.0900  -11.9990 H   0  0  0  0  0  0  0  0  0  0  0  0
  -13.3730   13.2950   -9.9910 H   0  0  0  0  0  0  0  0  0  0  0  0
  -12.1050   14.8360   -8.7210 H   0  0  0  0  0  0  0  0  0  0  0  0
  -11.1480   13.8950   -9.5700 H   0  0  0  0  0  0  0  0  0  0  0  0
  -11.4460   15.3760  -10.0620 H   0  0  0  0  0  0  0  0  0  0  0  0
  -15.1240   14.9090   -9.5320 N   0  0  0  0  0  0  0  0  0  0  0  0
  -16.1720   15.8750   -9.2020 C   0  0  1  0  0  0  0  0  0  0  0  0
  -17.5130   15.5490   -9.9020 C   0  0  1  0  0  0  0  0  0  0  0  0
  -17.3910   15.7250  -11.4280 C   0  0  0  0  0  0  0  0  0  0  0  0
  -17.7570   14.2050   -9.5160 O   0  0  0  0  0  0  0  0  0  0  0  0
  -19.2160   13.5780   -9.8610 P   0  0  0  0  0  0  0  0  0  0  0  0
  -19.2070   13.2000  -11.2910 O   0  0  0  0  0  0  0  0  0  0  0  0
  -19.2520   12.2800   -8.9270 O   0  0  0  0  0  0  0  0  0  0  0  0
  -20.3350   14.6040   -9.4810 O   0  0  0  0  0  0  0  0  0  0  0  0
  -16.3280   15.8580   -7.6960 C   0  0  0  0  0  0  0  0  0  0  0  0
  -15.8920   14.9120   -7.0180 O   0  0  0  0  0  0  0  0  0  0  0  0
  -16.9300   16.9060   -7.1600 N   0  0  0  0  0  0  0  0  0  0  0  0
  -17.0610   17.0510   -5.7190 C   0  0  2  0  0  0  0  0  0  0  0  0
  -18.4620   17.4990   -5.3370 C   0  0  0  0  0  0  0  0  0  0  0  0
  -19.2670   17.8910   -6.1970 O   0  0  0  0  0  0  0  0  0  0  0  0
  -15.9600   18.0330   -5.1850 C   0  0  0  0  0  0  0  0  0  0  0  0
  -16.3280   19.4880   -5.5310 C   0  0  0  0  0  0  0  0  0  0  0  0
  -15.7550   17.8590   -3.7280 C   0  0  0  0  0  0  0  0  0  0  0  0
  -18.8300   17.4450   -4.1410 O   0  0  0  0  0  0  0  0  0  0  0  0
  -17.2740   17.5520   -7.6120 H   0  0  0  0  0  0  0  0  0  0  0  0
  -16.9300   16.1890   -5.2930 H   0  0  0  0  0  0  0  0  0  0  0  0
  -15.1180   17.8280   -5.6200 H   0  0  0  0  0  0  0  0  0  0  0  0
  -17.0860   19.7600   -4.9900 H   0  0  0  0  0  0  0  0  0  0  0  0
  -15.5670   20.0600   -5.3440 H   0  0  0  0  0  0  0  0  0  0  0  0
  -16.5590   19.5410   -6.4720 H   0  0  0  0  0  0  0  0  0  0  0  0
  -16.5630   17.4910   -3.3370 H   0  0  0  0  0  0  0  0  0  0  0  0
  -15.0120   17.2510   -3.5840 H   0  0  0  0  0  0  0  0  0  0  0  0
  -15.5580   18.7220   -3.3310 H   0  0  0  0  0  0  0  0  0  0  0  0
  2  1  1  0
  3  2  1  0
  4  3  2  0
  5  2  1  0
  6  5  1  0
  7  6  2  0
  8  6  1  0
  9  7  1  0
 10  8  2  0
 11 10  1  0
 11  9  2  0
  2 12  1  6
 13  5  1  0
 14  5  1  0
 15  7  1  0
 16  8  1  0
 17  9  1  0
 18 10  1  0
 19 11  1  0
 20  3  1  0
 21 20  1  0
 22 21  1  0
 23 22  2  0
 24 21  1  0
 25 24  1  0
 26 25  1  0
 26 20  1  0
 21 27  1  1
 28 24  1  0
 29 24  1  0
 30 25  1  0
 31 25  1  0
 32 26  1  0
 33 26  1  0
 34 22  1  0
 35 34  1  0
 36 35  1  0
 37 36  2  0
 38 35  1  0
 39 34  1  0
 35 40  1  1
 41 38  1  0
 42 38  1  0
 43 38  1  0
 44 36  1  0
 45 44  1  1
 46 45  1  0
 46 47  1  6
 48 46  1  0
 49 48  1  0
 50 49  1  0
 51 49  1  0
 52 49  1  0
 53 45  1  0
 54 53  1  0
 55 53  1  0
 56 55  1  0
 57 56  1  0
 58 57  2  0
 59 56  1  0
 60 59  1  0
 61 59  1  0
 62 57  1  0
 63 55  1  0
 56 64  1  1
 65 59  1  0
 66 60  1  0
 67 60  1  0
 68 60  1  0
 69 61  1  0
 70 61  1  0
 71 61  1  0
M  END
$$$$
8BZ0
     RDKit          3D

 71 72  0  0  0  0  0  0  0  0999 V2000
   12.7520    7.8800   14.6290 N   0  0  0  0  0  0  0  0  0  0  0  0
   13.6130    9.0600   14.6550 C   0  0  2  0  0  0  0  0  0  0  0  0
   12.8990   10.2800   14.0750 C   0  0  0  0  0  0  0  0  0  0  0  0
   12.0090   10.1440   13.2270 O   0  0  0  0  0  0  0  0  0  0  0  0
   14.9430    8.7990   13.9160 C   0  0  0  0  0  0  0  0  0  0  0  0
   14.7860    8.1640   12.5550 C   0  0  0  0  0  0  0  0  0  0  0  0
   14.6000    8.9420   11.4230 C   0  0  0  0  0  0  0  0  0  0  0  0
   14.8460    6.7840   12.4040 C   0  0  0  0  0  0  0  0  0  0  0  0
   14.4530    8.3590   10.1730 C   0  0  0  0  0  0  0  0  0  0  0  0
   14.7010    6.1980   11.1560 C   0  0  0  0  0  0  0  0  0  0  0  0
   14.5090    6.9850   10.0410 C   0  0  0  0  0  0  0  0  0  0  0  0
   13.8340    9.2600   15.5780 H   0  0  0  0  0  0  0  0  0  0  0  0
   15.4000    9.6460   13.7940 H   0  0  0  0  0  0  0  0  0  0  0  0
   15.4860    8.2040   14.4570 H   0  0  0  0  0  0  0  0  0  0  0  0
   14.5730    9.8680   11.5030 H   0  0  0  0  0  0  0  0  0  0  0  0
   14.9840    6.2470   13.1500 H   0  0  0  0  0  0  0  0  0  0  0  0
   14.3170    8.8930    9.4230 H   0  0  0  0  0  0  0  0  0  0  0  0
   14.7350    5.2720   11.0710 H   0  0  0  0  0  0  0  0  0  0  0  0
   14.4170    6.5930    9.2030 H   0  0  0  0  0  0  0  0  0  0  0  0
   13.2720   11.4710   14.5360 N   0  0  0  0  0  0  0  0  0  0  0  0
   12.7060   12.6940   13.9630 C   0  0  2  0  0  0  0  0  0  0  0  0
   13.3060   13.0030   12.5990 C   0  0  0  0  0  0  0  0  0  0  0  0
   14.3610   12.4970   12.2120 O   0  0  0  0  0  0  0  0  0  0  0  0
   13.0690   13.7570   15.0020 C   0  0  0  0  0  0  0  0  0  0  0  0
   14.3830   13.2930   15.5370 C   0  0  0  0  0  0  0  0  0  0  0  0
   14.2670   11.7700   15.5860 C   0  0  0  0  0  0  0  0  0  0  0  0
   11.7410   12.6400   13.8800 H   0  0  0  0  0  0  0  0  0  0  0  0
   13.1490   14.6260   14.5780 H   0  0  0  0  0  0  0  0  0  0  0  0
   12.3960   13.7880   15.6990 H   0  0  0  0  0  0  0  0  0  0  0  0
   15.0990   13.5680   14.9430 H   0  0  0  0  0  0  0  0  0  0  0  0
   14.5280   13.6600   16.4230 H   0  0  0  0  0  0  0  0  0  0  0  0
   15.1190   11.3530   15.3840 H   0  0  0  0  0  0  0  0  0  0  0  0
   13.9520   11.4760   16.4550 H   0  0  0  0  0  0  0  0  0  0  0  0
   12.5880   13.8380   11.8540 N   0  0  0  0  0  0  0  0  0  0  0  0
   12.9810   14.1920   10.5210 C   0  0  2  0  0  0  0  0  0  0  0  0
   14.0970   15.2300   10.4920 C   0  0  0  0  0  0  0  0  0  0  0  0
   14.0350   16.2190   11.2060 O   0  0  0  0  0  0  0  0  0  0  0  0
   11.7740   14.7250    9.7370 C   0  0  0  0  0  0  0  0  0  0  0  0
   11.8580   14.2120   12.1140 H   0  0  0  0  0  0  0  0  0  0  0  0
   13.3180   13.3880   10.0940 H   0  0  0  0  0  0  0  0  0  0  0  0
   12.0580   14.9590    8.8400 H   0  0  0  0  0  0  0  0  0  0  0  0
   11.0930   14.0350    9.6990 H   0  0  0  0  0  0  0  0  0  0  0  0
   11.4260   15.5090   10.1890 H   0  0  0  0  0  0  0  0  0  0  0  0
   15.0810   14.9870    9.6320 N   0  0  0  0  0  0  0  0  0  0  0  0
   16.1300   15.9480    9.3080 C   0  0  1  0  0  0  0  0  0  0  0  0
   17.4540   15.6210   10.0470 C   0  0  1  0  0  0  0  0  0  0  0  0
   17.2750   15.8040   11.5580 C   0  0  0  0  0  0  0  0  0  0  0  0
   17.7570   14.2570    9.7220 O   0  0  0  0  0  0  0  0  0  0  0  0
   19.2010   13.6290   10.0870 P   0  0  0  0  0  0  0  0  0  0  0  0
   19.2920   12.3720    9.1220 O   0  0  0  0  0  0  0  0  0  0  0  0
   19.2150   13.2320   11.5160 O   0  0  0  0  0  0  0  0  0  0  0  0
   20.3070   14.6950    9.7690 O   0  0  0  0  0  0  0  0  0  0  0  0
   16.3530   15.9080    7.8030 C   0  0  0  0  0  0  0  0  0  0  0  0
   15.9610   14.9310    7.1410 O   0  0  0  0  0  0  0  0  0  0  0  0
   16.9490   16.9510    7.2530 N   0  0  0  0  0  0  0  0  0  0  0  0
   17.2430   16.9960    5.8280 C   0  0  2  0  0  0  0  0  0  0  0  0
   18.7060   17.2910    5.5690 C   0  0  0  0  0  0  0  0  0  0  0  0
   19.4860   17.7420    6.4170 O   0  0  0  0  0  0  0  0  0  0  0  0
   16.3810   18.0290    5.0950 C   0  0  0  0  0  0  0  0  0  0  0  0
   14.9290   17.6880    5.2230 C   0  0  0  0  0  0  0  0  0  0  0  0
   16.6700   19.4260    5.6200 C   0  0  0  0  0  0  0  0  0  0  0  0
   19.1180   17.0680    4.4150 O   0  0  0  0  0  0  0  0  0  0  0  0
   17.1970   17.6530    7.6850 H   0  0  0  0  0  0  0  0  0  0  0  0
   17.0380   16.1160    5.4750 H   0  0  0  0  0  0  0  0  0  0  0  0
   16.6020   18.0160    4.1510 H   0  0  0  0  0  0  0  0  0  0  0  0
   14.4080   18.3320    4.7180 H   0  0  0  0  0  0  0  0  0  0  0  0
   14.7820   16.7960    4.8710 H   0  0  0  0  0  0  0  0  0  0  0  0
   14.6780   17.7200    6.1590 H   0  0  0  0  0  0  0  0  0  0  0  0
   15.9940   20.0360    5.2840 H   0  0  0  0  0  0  0  0  0  0  0  0
   16.6480   19.4100    6.5900 H   0  0  0  0  0  0  0  0  0  0  0  0
   17.5480   19.7040    5.3140 H   0  0  0  0  0  0  0  0  0  0  0  0
  2  1  1  0
  3  2  1  0
  4  3  2  0
  5  2  1  0
  6  5  1  0
  7  6  2  0
  8  6  1  0
  9  7  1  0
 10  8  2  0
 11  9  2  0
 11 10  1  0
  2 12  1  1
 13  5  1  0
 14  5  1  0
 15  7  1  0
 16  8  1  0
 17  9  1  0
 18 10  1  0
 19 11  1  0
 20  3  1  0
 21 20  1  0
 22 21  1  0
 23 22  2  0
 24 21  1  0
 25 24  1  0
 26 25  1  0
 26 20  1  0
 21 27  1  6
 28 24  1  0
 29 24  1  0
 30 25  1  0
 31 25  1  0
 32 26  1  0
 33 26  1  0
 34 22  1  0
 35 34  1  0
 36 35  1  0
 37 36  2  0
 38 35  1  0
 39 34  1  0
 35 40  1  6
 41 38  1  0
 42 38  1  0
 43 38  1  0
 44 36  1  0
 45 44  1  6
 46 45  1  0
 46 47  1  1
 48 46  1  0
 49 48  1  0
 50 49  1  0
 51 49  1  0
 52 49  1  0
 53 45  1  0
 54 53  1  0
 55 53  1  0
 56 55  1  0
 57 56  1  0
 58 57  2  0
 59 56  1  0
 60 59  1  0
 61 59  1  0
 62 57  1  0
 63 55  1  0
 56 64  1  6
 65 59  1  0
 66 60  1  0
 67 60  1  0
 68 60  1  0
 69 61  1  0
 70 61  1  0
 71 61  1  0
M  END
$$$$
8BXO
     RDKit          3D

 71 72  0  0  0  0  0  0  0  0999 V2000
  -12.7070   -7.8120   14.7790 N   0  0  0  0  0  0  0  0  0  0  0  0
  -13.6150   -8.9600   14.7760 C   0  0  2  0  0  0  0  0  0  0  0  0
  -12.9250  -10.1620   14.1470 C   0  0  0  0  0  0  0  0  0  0  0  0
  -12.0250   -9.9940   13.3130 O   0  0  0  0  0  0  0  0  0  0  0  0
  -14.9210   -8.5960   14.0480 C   0  0  0  0  0  0  0  0  0  0  0  0
  -14.7410   -8.0940   12.6330 C   0  0  0  0  0  0  0  0  0  0  0  0
  -14.2110   -8.9030   11.6400 C   0  0  0  0  0  0  0  0  0  0  0  0
  -15.0850   -6.7840   12.3090 C   0  0  0  0  0  0  0  0  0  0  0  0
  -14.0480   -8.4300   10.3470 C   0  0  0  0  0  0  0  0  0  0  0  0
  -14.9180   -6.3010   11.0190 C   0  0  0  0  0  0  0  0  0  0  0  0
  -14.4030   -7.1250   10.0360 C   0  0  0  0  0  0  0  0  0  0  0  0
  -13.8630   -9.2090   15.6800 H   0  0  0  0  0  0  0  0  0  0  0  0
  -15.4820   -9.3860   14.0070 H   0  0  0  0  0  0  0  0  0  0  0  0
  -15.3690   -7.8970   14.5500 H   0  0  0  0  0  0  0  0  0  0  0  0
  -13.9620   -9.7750   11.8450 H   0  0  0  0  0  0  0  0  0  0  0  0
  -15.4330   -6.2260   12.9660 H   0  0  0  0  0  0  0  0  0  0  0  0
  -13.7010   -8.9870    9.6880 H   0  0  0  0  0  0  0  0  0  0  0  0
  -15.1510   -5.4240   10.8160 H   0  0  0  0  0  0  0  0  0  0  0  0
  -14.2950   -6.8060    9.1690 H   0  0  0  0  0  0  0  0  0  0  0  0
  -13.3170  -11.3700   14.5510 N   0  0  0  0  0  0  0  0  0  0  0  0
  -12.7250  -12.5690   13.9590 C   0  0  2  0  0  0  0  0  0  0  0  0
  -13.3350  -12.8740   12.6030 C   0  0  0  0  0  0  0  0  0  0  0  0
  -14.4090  -12.3910   12.2320 O   0  0  0  0  0  0  0  0  0  0  0  0
  -13.0610  -13.6680   14.9700 C   0  0  0  0  0  0  0  0  0  0  0  0
  -14.3460  -13.2200   15.5810 C   0  0  0  0  0  0  0  0  0  0  0  0
  -14.3110  -11.7100   15.5910 C   0  0  0  0  0  0  0  0  0  0  0  0
  -11.7620  -12.4840   13.8800 H   0  0  0  0  0  0  0  0  0  0  0  0
  -13.1670  -14.5180   14.5160 H   0  0  0  0  0  0  0  0  0  0  0  0
  -12.3600  -13.7330   15.6380 H   0  0  0  0  0  0  0  0  0  0  0  0
  -15.0890  -13.5410   15.0470 H   0  0  0  0  0  0  0  0  0  0  0  0
  -14.4140  -13.5660   16.4850 H   0  0  0  0  0  0  0  0  0  0  0  0
  -15.1810  -11.3460   15.3660 H   0  0  0  0  0  0  0  0  0  0  0  0
  -14.0270  -11.3800   16.4580 H   0  0  0  0  0  0  0  0  0  0  0  0
  -12.6130  -13.6870   11.8450 N   0  0  0  0  0  0  0  0  0  0  0  0
  -13.0370  -14.0450   10.5170 C   0  0  2  0  0  0  0  0  0  0  0  0
  -14.1440  -15.1100   10.4780 C   0  0  0  0  0  0  0  0  0  0  0  0
  -14.0870  -16.1120   11.1980 O   0  0  0  0  0  0  0  0  0  0  0  0
  -11.8420  -14.5350    9.7120 C   0  0  0  0  0  0  0  0  0  0  0  0
  -11.8680  -14.0430   12.0860 H   0  0  0  0  0  0  0  0  0  0  0  0
  -13.4110  -13.2440   10.1170 H   0  0  0  0  0  0  0  0  0  0  0  0
  -12.1390  -14.7740    8.8200 H   0  0  0  0  0  0  0  0  0  0  0  0
  -11.1820  -13.8260    9.6630 H   0  0  0  0  0  0  0  0  0  0  0  0
  -11.4610  -15.3110   10.1530 H   0  0  0  0  0  0  0  0  0  0  0  0
  -15.1340  -14.8750    9.6150 N   0  0  0  0  0  0  0  0  0  0  0  0
  -16.1720  -15.8530    9.2840 C   0  0  1  0  0  0  0  0  0  0  0  0
  -17.5290  -15.5360    9.9710 C   0  0  1  0  0  0  0  0  0  0  0  0
  -17.4000  -15.6970   11.4880 C   0  0  0  0  0  0  0  0  0  0  0  0
  -17.7760  -14.1870    9.6020 O   0  0  0  0  0  0  0  0  0  0  0  0
  -19.2290  -13.5700    9.9540 P   0  0  0  0  0  0  0  0  0  0  0  0
  -19.3150  -12.2840    8.9950 O   0  0  0  0  0  0  0  0  0  0  0  0
  -19.2730  -13.1600   11.3670 O   0  0  0  0  0  0  0  0  0  0  0  0
  -20.3450  -14.5880    9.5900 O   0  0  0  0  0  0  0  0  0  0  0  0
  -16.3060  -15.8530    7.7740 C   0  0  0  0  0  0  0  0  0  0  0  0
  -15.8490  -14.9120    7.1000 O   0  0  0  0  0  0  0  0  0  0  0  0
  -16.9400  -16.8810    7.2180 N   0  0  0  0  0  0  0  0  0  0  0  0
  -16.9700  -17.0020    5.7610 C   0  0  2  0  0  0  0  0  0  0  0  0
  -18.2580  -17.5230    5.1480 C   0  0  0  0  0  0  0  0  0  0  0  0
  -18.9280  -18.3950    5.6920 O   0  0  0  0  0  0  0  0  0  0  0  0
  -15.8130  -17.9100    5.2860 C   0  0  0  0  0  0  0  0  0  0  0  0
  -16.0440  -19.3530    5.7480 C   0  0  0  0  0  0  0  0  0  0  0  0
  -15.6850  -17.8790    3.7760 C   0  0  0  0  0  0  0  0  0  0  0  0
  -18.6130  -17.1120    4.0440 O   0  0  0  0  0  0  0  0  0  0  0  0
  -17.3490  -17.5030    7.6480 H   0  0  0  0  0  0  0  0  0  0  0  0
  -16.8910  -16.0880    5.4450 H   0  0  0  0  0  0  0  0  0  0  0  0
  -14.9880  -17.5780    5.6730 H   0  0  0  0  0  0  0  0  0  0  0  0
  -16.3020  -19.8910    4.9840 H   0  0  0  0  0  0  0  0  0  0  0  0
  -15.2230  -19.6960    6.1330 H   0  0  0  0  0  0  0  0  0  0  0  0
  -16.7510  -19.3620    6.4120 H   0  0  0  0  0  0  0  0  0  0  0  0
  -14.8520  -18.3070    3.5210 H   0  0  0  0  0  0  0  0  0  0  0  0
  -16.4340  -18.3550    3.3860 H   0  0  0  0  0  0  0  0  0  0  0  0
  -15.6870  -16.9570    3.4770 H   0  0  0  0  0  0  0  0  0  0  0  0
  2  1  1  0
  3  2  1  0
  4  3  2  0
  5  2  1  0
  6  5  1  0
  7  6  2  0
  8  6  1  0
  9  7  1  0
 10  8  2  0
 11  9  2  0
 11 10  1  0
  2 12  1  1
 13  5  1  0
 14  5  1  0
 15  7  1  0
 16  8  1  0
 17  9  1  0
 18 10  1  0
 19 11  1  0
 20  3  1  0
 21 20  1  0
 22 21  1  0
 23 22  2  0
 24 21  1  0
 25 24  1  0
 26 25  1  0
 26 20  1  0
 21 27  1  6
 28 24  1  0
 29 24  1  0
 30 25  1  0
 31 25  1  0
 32 26  1  0
 33 26  1  0
 34 22  1  0
 35 34  1  0
 36 35  1  0
 37 36  2  0
 38 35  1  0
 39 34  1  0
 35 40  1  6
 41 38  1  0
 42 38  1  0
 43 38  1  0
 44 36  1  0
 45 44  1  6
 46 45  1  0
 46 47  1  1
 48 46  1  0
 49 48  1  0
 50 49  1  0
 51 49  1  0
 52 49  1  0
 53 45  1  0
 54 53  1  0
 55 53  1  0
 56 55  1  0
 57 56  1  0
 58 57  2  0
 59 56  1  0
 60 59  1  0
 61 59  1  0
 62 57  1  0
 63 55  1  0
 56 64  1  6
 65 59  1  0
 66 60  1  0
 67 60  1  0
 68 60  1  0
 69 61  1  0
 70 61  1  0
 71 61  1  0
M  END
$$$$
7SFO
     RDKit          3D

 52 52  0  0  0  0  0  0  0  0999 V2000
    2.9300  -19.4250   -9.6390 N   0  0  0  0  0  0  0  0  0  0  0  0
    2.6790  -18.0060   -9.7770 C   0  0  2  0  0  0  0  0  0  0  0  0
    3.6870  -17.3860  -10.7410 C   0  0  0  0  0  0  0  0  0  0  0  0
    4.7120  -17.9960  -11.0470 O   0  0  0  0  0  0  0  0  0  0  0  0
    2.7540  -17.3130   -8.4160 C   0  0  0  0  0  0  0  0  0  0  0  0
    3.3870  -16.1690  -11.2050 N   0  0  0  0  0  0  0  0  0  0  0  0
    4.2930  -15.4560  -12.1070 C   0  0  2  0  0  0  0  0  0  0  0  0
    5.6430  -15.1990  -11.4480 C   0  0  0  0  0  0  0  0  0  0  0  0
    6.6920  -15.2890  -12.0980 O   0  0  0  0  0  0  0  0  0  0  0  0
    3.6470  -14.1410  -12.5830 C   0  0  2  0  0  0  0  0  0  0  0  0
    2.3200  -14.4310  -13.2960 C   0  0  0  0  0  0  0  0  0  0  0  0
    4.6110  -13.3380  -13.4620 C   0  0  0  0  0  0  0  0  0  0  0  0
    1.6130  -13.1790  -13.7550 C   0  0  0  0  0  0  0  0  0  0  0  0
    5.6390  -14.8490  -10.1580 N   0  0  0  0  0  0  0  0  0  0  0  0
    6.8970  -14.5760   -9.4690 C   0  0  2  0  0  0  0  0  0  0  0  0
    7.7730  -15.8220   -9.4140 C   0  0  0  0  0  0  0  0  0  0  0  0
    8.9990  -15.7320   -9.5830 O   0  0  0  0  0  0  0  0  0  0  0  0
    6.6090  -14.0300   -8.0630 C   0  0  0  0  0  0  0  0  0  0  0  0
    7.7690  -13.5810   -7.1700 C   0  0  0  0  0  0  0  0  0  0  0  0
    8.5780  -12.5190   -7.8750 C   0  0  0  0  0  0  0  0  0  0  0  0
    7.2710  -13.0580   -5.8130 C   0  0  0  0  0  0  0  0  0  0  0  0
    7.1540  -16.9940   -9.1930 N   0  0  0  0  0  0  0  0  0  0  0  0
    7.8520  -18.2770   -9.2680 C   0  0  2  0  0  0  0  0  0  0  0  0
    8.6000  -18.4380  -10.5890 C   0  0  0  0  0  0  0  0  0  0  0  0
    9.8130  -18.6750  -10.6100 O   0  0  0  0  0  0  0  0  0  0  0  0
    6.8520  -19.4330   -9.0970 C   0  0  0  0  0  0  0  0  0  0  0  0
    6.6770  -19.8900   -7.6830 C   0  0  0  0  0  0  0  0  0  0  0  0
    7.5060  -20.8200   -7.0950 N   0  0  0  0  0  0  0  0  0  0  0  0
    5.7640  -19.5520   -6.7410 C   0  0  0  0  0  0  0  0  0  0  0  0
    7.1170  -21.0300   -5.8500 C   0  0  0  0  0  0  0  0  0  0  0  0
    6.0620  -20.2720   -5.6100 N   0  0  0  0  0  0  0  0  0  0  0  0
    7.8720  -18.3440  -11.7090 N   0  0  0  0  0  0  0  0  0  0  0  0
    8.5010  -18.5000  -13.0180 C   0  0  2  0  0  0  0  0  0  0  0  0
    9.5060  -17.3900  -13.3000 C   0  0  0  0  0  0  0  0  0  0  0  0
   10.4650  -17.6050  -14.0470 O   0  0  0  0  0  0  0  0  0  0  0  0
    7.4350  -18.5360  -14.1190 C   0  0  0  0  0  0  0  0  0  0  0  0
    9.3060  -16.1970  -12.7310 N   0  0  0  0  0  0  0  0  0  0  0  0
   10.2560  -15.1210  -12.9840 C   0  0  2  0  0  0  0  0  0  0  0  0
   11.5640  -15.3710  -12.2440 C   0  0  0  0  0  0  0  0  0  0  0  0
   12.6510  -15.1260  -12.7860 O   0  0  0  0  0  0  0  0  0  0  0  0
    9.6350  -13.7840  -12.5890 C   0  0  0  0  0  0  0  0  0  0  0  0
    8.7510  -13.1570  -13.6800 C   0  0  0  0  0  0  0  0  0  0  0  0
    8.1690  -11.8380  -13.2170 C   0  0  0  0  0  0  0  0  0  0  0  0
    9.4830  -12.9900  -15.0140 C   0  0  0  0  0  0  0  0  0  0  0  0
   11.4830  -15.8830  -11.0190 N   0  0  0  0  0  0  0  0  0  0  0  0
   12.6790  -16.2230  -10.2550 C   0  0  2  0  0  0  0  0  0  0  0  0
   13.3770  -17.4460  -10.8470 C   0  0  0  0  0  0  0  0  0  0  0  0
   14.5950  -17.4340  -11.0220 O   0  0  0  0  0  0  0  0  0  0  0  0
   12.3400  -16.4770   -8.7800 C   0  0  0  0  0  0  0  0  0  0  0  0
   12.0700  -15.2280   -7.9280 C   0  0  0  0  0  0  0  0  0  0  0  0
   11.2530  -15.5610   -6.6750 C   0  0  0  0  0  0  0  0  0  0  0  0
   13.3760  -14.5510   -7.5490 C   0  0  0  0  0  0  0  0  0  0  0  0
  2  1  1  0
  3  2  1  0
  4  3  2  0
  2  5  1  1
  6  3  1  0
  7  6  1  1
  8  7  1  0
  9  8  2  0
 10  7  1  0
 11 10  1  0
 10 12  1  6
 13 11  1  0
 14  8  1  0
 15 14  1  0
 16 15  1  0
 17 16  2  0
 15 18  1  1
 19 18  1  0
 20 19  1  0
 21 19  1  0
 22 16  1  0
 23 22  1  0
 24 23  1  0
 25 24  2  0
 23 26  1  6
 27 26  1  0
 28 27  1  0
 29 27  2  0
 30 28  2  0
 31 30  1  0
 31 29  1  0
 32 24  1  0
 33 32  1  0
 34 33  1  0
 35 34  2  0
 33 36  1  6
 37 34  1  0
 38 37  1  0
 39 38  1  0
 40 39  2  0
 38 41  1  1
 42 41  1  0
 43 42  1  0
 44 42  1  0
 45 39  1  0
 46 45  1  0
 47 46  1  0
 48 47  2  0
 46 49  1  1
 50 49  1  0
 51 50  1  0
 52 50  1  0
M  END
$$$$
8BZG
     RDKit          3D

 76 77  0  0  0  0  0  0  0  0999 V2000
   12.7960    7.4720   15.4770 N   0  0  0  0  0  0  0  0  0  0  0  0
   13.6890    8.6210   15.3870 C   0  0  2  0  0  0  0  0  0  0  0  0
   12.9670    9.8100   14.7560 C   0  0  0  0  0  0  0  0  0  0  0  0
   12.0540    9.6310   13.9510 O   0  0  0  0  0  0  0  0  0  0  0  0
   14.9400    8.2570   14.5750 C   0  0  0  0  0  0  0  0  0  0  0  0
   16.0180    7.5720   15.3870 C   0  0  0  0  0  0  0  0  0  0  0  0
   15.9370    6.2190   15.6750 C   0  0  0  0  0  0  0  0  0  0  0  0
   17.1040    8.2920   15.8660 C   0  0  0  0  0  0  0  0  0  0  0  0
   16.9280    5.5880   16.4220 C   0  0  0  0  0  0  0  0  0  0  0  0
   18.0960    7.6730   16.6140 C   0  0  0  0  0  0  0  0  0  0  0  0
   18.0080    6.3180   16.8950 C   0  0  0  0  0  0  0  0  0  0  0  0
   13.9780    8.8810   16.2760 H   0  0  0  0  0  0  0  0  0  0  0  0
   14.6820    7.6560   13.8590 H   0  0  0  0  0  0  0  0  0  0  0  0
   15.3190    9.0700   14.2060 H   0  0  0  0  0  0  0  0  0  0  0  0
   15.2120    5.7260   15.3650 H   0  0  0  0  0  0  0  0  0  0  0  0
   17.1680    9.2020   15.6830 H   0  0  0  0  0  0  0  0  0  0  0  0
   16.8660    4.6780   16.6040 H   0  0  0  0  0  0  0  0  0  0  0  0
   18.8200    8.1660   16.9260 H   0  0  0  0  0  0  0  0  0  0  0  0
   18.6690    5.9010   17.3990 H   0  0  0  0  0  0  0  0  0  0  0  0
   13.3690   11.0230   15.1180 N   0  0  0  0  0  0  0  0  0  0  0  0
   12.7780   12.2130   14.4970 C   0  0  2  0  0  0  0  0  0  0  0  0
   13.4000   12.4710   13.1350 C   0  0  0  0  0  0  0  0  0  0  0  0
   14.4670   11.9530   12.7990 O   0  0  0  0  0  0  0  0  0  0  0  0
   13.1430   13.3260   15.4790 C   0  0  0  0  0  0  0  0  0  0  0  0
   14.4740   12.8960   16.0290 C   0  0  0  0  0  0  0  0  0  0  0  0
   14.4530   11.3750   16.0590 C   0  0  0  0  0  0  0  0  0  0  0  0
   11.8140   12.1420   14.4210 H   0  0  0  0  0  0  0  0  0  0  0  0
   13.2120   14.1740   15.0140 H   0  0  0  0  0  0  0  0  0  0  0  0
   12.4750   13.3860   16.1810 H   0  0  0  0  0  0  0  0  0  0  0  0
   15.1830   13.2170   15.4520 H   0  0  0  0  0  0  0  0  0  0  0  0
   14.5870   13.2540   16.9240 H   0  0  0  0  0  0  0  0  0  0  0  0
   15.3010   11.0140   15.7570 H   0  0  0  0  0  0  0  0  0  0  0  0
   14.2540   11.0510   16.9510 H   0  0  0  0  0  0  0  0  0  0  0  0
   12.7030   13.2800   12.3450 N   0  0  0  0  0  0  0  0  0  0  0  0
   13.1530   13.5590   10.9920 C   0  0  2  0  0  0  0  0  0  0  0  0
   14.1510   14.6990   10.8590 C   0  0  0  0  0  0  0  0  0  0  0  0
   14.0240   15.7310   11.5240 O   0  0  0  0  0  0  0  0  0  0  0  0
   11.9720   13.8100   10.0680 C   0  0  0  0  0  0  0  0  0  0  0  0
   11.9730   13.6750   12.5690 H   0  0  0  0  0  0  0  0  0  0  0  0
   13.6280   12.7600   10.7160 H   0  0  0  0  0  0  0  0  0  0  0  0
   11.4070   13.0220   10.0570 H   0  0  0  0  0  0  0  0  0  0  0  0
   11.4700   14.5720   10.3970 H   0  0  0  0  0  0  0  0  0  0  0  0
   12.3030   13.9930    9.1750 H   0  0  0  0  0  0  0  0  0  0  0  0
   15.1420   14.4940    9.9880 N   0  0  0  0  0  0  0  0  0  0  0  0
   16.1570   15.5060    9.6370 C   0  0  1  0  0  0  0  0  0  0  0  0
   17.5300   15.1700   10.2880 C   0  0  1  0  0  0  0  0  0  0  0  0
   17.4030   15.3440   11.8190 C   0  0  2  0  0  0  0  0  0  0  0  0
   17.7750   13.8250    9.8470 O   0  0  0  0  0  0  0  0  0  0  0  0
   19.2510   13.2430   10.1830 P   0  0  0  0  0  0  0  0  0  0  0  0
   19.3340   11.9760    9.2330 O   0  0  0  0  0  0  0  0  0  0  0  0
   19.3120   12.8540   11.6280 O   0  0  0  0  0  0  0  0  0  0  0  0
   20.3650   14.2900    9.7900 O   0  0  0  0  0  0  0  0  0  0  0  0
   16.2310   15.5260    8.1220 C   0  0  0  0  0  0  0  0  0  0  0  0
   15.6660   14.6530    7.4290 O   0  0  0  0  0  0  0  0  0  0  0  0
   15.9310   16.3960    9.9800 H   0  0  0  0  0  0  0  0  0  0  0  0
   18.3660   15.8110   10.0080 H   0  0  0  0  0  0  0  0  0  0  0  0
   18.3670   15.1510   12.2880 H   0  0  0  0  0  0  0  0  0  0  0  0
   16.6640   14.6410   12.2040 H   0  0  0  0  0  0  0  0  0  0  0  0
   17.0860   16.3620   12.0440 H   0  0  0  0  0  0  0  0  0  0  0  0
   16.9010   16.5400    7.5900 N   0  0  0  0  0  0  0  0  0  0  0  0
   17.0460   16.7060    6.1460 C   0  0  2  0  0  0  0  0  0  0  0  0
   18.4670   17.1330    5.8130 C   0  0  0  0  0  0  0  0  0  0  0  0
   19.1860   17.6320    6.6980 O   0  0  0  0  0  0  0  0  0  0  0  0
   15.9870   17.6910    5.5890 C   0  0  0  0  0  0  0  0  0  0  0  0
   16.2590   19.1100    6.0330 C   0  0  0  0  0  0  0  0  0  0  0  0
   15.8980   17.6270    4.0630 C   0  0  0  0  0  0  0  0  0  0  0  0
   18.8860   17.0000    4.6410 O   0  0  0  0  0  0  0  0  0  0  0  0
   17.2870   17.1560    8.0490 H   0  0  0  0  0  0  0  0  0  0  0  0
   16.8920   15.8570    5.7040 H   0  0  0  0  0  0  0  0  0  0  0  0
   15.1300   17.4190    5.9520 H   0  0  0  0  0  0  0  0  0  0  0  0
   17.1070   19.4000    5.6620 H   0  0  0  0  0  0  0  0  0  0  0  0
   15.5450   19.6830    5.7130 H   0  0  0  0  0  0  0  0  0  0  0  0
   16.2950   19.1360    7.0020 H   0  0  0  0  0  0  0  0  0  0  0  0
   16.5990   17.0450    3.7300 H   0  0  0  0  0  0  0  0  0  0  0  0
   15.0290   17.2760    3.8110 H   0  0  0  0  0  0  0  0  0  0  0  0
   16.0110   18.5200    3.7020 H   0  0  0  0  0  0  0  0  0  0  0  0
  2  1  1  0
  3  2  1  0
  4  3  2  0
  5  2  1  0
  6  5  1  0
  7  6  2  0
  8  6  1  0
  9  7  1  0
 10  8  2  0
 11 10  1  0
 11  9  2  0
  2 12  1  1
 13  5  1  0
 14  5  1  0
 15  7  1  0
 16  8  1  0
 17  9  1  0
 18 10  1  0
 19 11  1  0
 20  3  1  0
 21 20  1  0
 22 21  1  0
 23 22  2  0
 24 21  1  0
 25 24  1  0
 26 25  1  0
 26 20  1  0
 21 27  1  6
 28 24  1  0
 29 24  1  0
 30 25  1  0
 31 25  1  0
 32 26  1  0
 33 26  1  0
 34 22  1  0
 35 34  1  0
 36 35  1  0
 37 36  2  0
 38 35  1  0
 39 34  1  0
 35 40  1  6
 41 38  1  0
 42 38  1  0
 43 38  1  0
 44 36  1  0
 45 44  1  0
 46 45  1  0
 47 46  1  0
 48 46  1  0
 49 48  1  0
 50 49  1  0
 51 49  1  0
 52 49  1  0
 53 45  1  0
 54 53  1  0
 45 55  1  1
 46 56  1  6
 47 57  1  1
 58 47  1  0
 59 47  1  0
 60 53  1  0
 61 60  1  0
 62 61  1  0
 63 62  2  0
 64 61  1  0
 65 64  1  0
 66 64  1  0
 67 62  1  0
 68 60  1  0
 61 69  1  6
 70 64  1  0
 71 65  1  0
 72 65  1  0
 73 65  1  0
 74 66  1  0
 75 66  1  0
 76 66  1  0
M  END
$$$$
5KCD
     RDKit          3D

 79 79  0  0  0  0  0  0  0  0999 V2000
   15.6060    0.6080   37.2050 N   0  0  0  0  0  0  0  0  0  0  0  0
   15.9020    2.0170   37.4290 C   0  0  2  0  0  0  0  0  0  0  0  0
   14.8220    2.6550   38.2950 C   0  0  0  0  0  0  0  0  0  0  0  0
   13.7330    2.1030   38.4550 O   0  0  0  0  0  0  0  0  0  0  0  0
   16.0470    2.7600   36.1010 C   0  0  0  0  0  0  0  0  0  0  0  0
   14.8200    2.7270   35.2110 C   0  0  0  0  0  0  0  0  0  0  0  0
   15.1130    3.3590   33.8490 C   0  0  0  0  0  0  0  0  0  0  0  0
   16.1680    2.5680   33.0920 C   0  0  0  0  0  0  0  0  0  0  0  0
   16.4080    3.0780   31.7060 N   0  0  0  0  0  0  0  0  0  0  0  0
   15.1410    3.8110   38.8660 N   0  0  0  0  0  0  0  0  0  0  0  0
   14.2350    4.5170   39.7690 C   0  0  2  0  0  0  0  0  0  0  0  0
   12.8870    4.8290   39.1250 C   0  0  0  0  0  0  0  0  0  0  0  0
   11.8340    4.6470   39.7410 O   0  0  0  0  0  0  0  0  0  0  0  0
   14.8660    5.8230   40.2500 C   0  0  2  0  0  0  0  0  0  0  0  0
   16.1750    5.5300   40.9780 C   0  0  0  0  0  0  0  0  0  0  0  0
   13.9060    6.5930   41.1450 C   0  0  0  0  0  0  0  0  0  0  0  0
   16.9170    6.7720   41.3970 C   0  0  0  0  0  0  0  0  0  0  0  0
   12.9300    5.3010   37.8830 N   0  0  0  0  0  0  0  0  0  0  0  0
   11.7180    5.6300   37.1470 C   0  0  2  0  0  0  0  0  0  0  0  0
   10.8340    4.3950   37.0030 C   0  0  0  0  0  0  0  0  0  0  0  0
    9.6120    4.4710   37.1310 O   0  0  0  0  0  0  0  0  0  0  0  0
   12.0700    6.2060   35.7720 C   0  0  0  0  0  0  0  0  0  0  0  0
   10.9090    6.5910   34.8610 C   0  0  0  0  0  0  0  0  0  0  0  0
   10.0120    7.5840   35.5580 C   0  0  0  0  0  0  0  0  0  0  0  0
   11.4370    7.1790   33.5600 C   0  0  0  0  0  0  0  0  0  0  0  0
   11.4730    3.2580   36.7490 N   0  0  0  0  0  0  0  0  0  0  0  0
   10.7840    1.9830   36.6030 C   0  0  2  0  0  0  0  0  0  0  0  0
   10.0400    1.5780   37.8820 C   0  0  0  0  0  0  0  0  0  0  0  0
    8.9190    1.0700   37.8260 O   0  0  0  0  0  0  0  0  0  0  0  0
   11.7860    0.8950   36.2080 C   0  0  0  0  0  0  0  0  0  0  0  0
   11.1480   -0.3740   35.7500 C   0  0  0  0  0  0  0  0  0  0  0  0
   10.7970   -1.3870   36.6130 N   0  0  0  0  0  0  0  0  0  0  0  0
   10.7920   -0.7980   34.5100 C   0  0  0  0  0  0  0  0  0  0  0  0
   10.2530   -2.3800   35.9320 C   0  0  0  0  0  0  0  0  0  0  0  0
   10.2390   -2.0430   34.6530 N   0  0  0  0  0  0  0  0  0  0  0  0
   10.6650    1.8050   39.0320 N   0  0  0  0  0  0  0  0  0  0  0  0
   10.0180    1.5310   40.3130 C   0  0  2  0  0  0  0  0  0  0  0  0
    8.7950    2.4200   40.5320 C   0  0  0  0  0  0  0  0  0  0  0  0
    7.7140    1.9300   40.8570 O   0  0  0  0  0  0  0  0  0  0  0  0
   11.0050    1.7210   41.4640 C   0  0  0  0  0  0  0  0  0  0  0  0
   11.5270    0.4300   42.0600 C   0  0  0  0  0  0  0  0  0  0  0  0
   12.3100    0.7080   43.3320 C   0  0  0  0  0  0  0  0  0  0  0  0
   13.4860    1.5310   43.0680 N   0  0  0  0  0  0  0  0  0  0  0  0
   14.6540    1.0430   42.6630 C   0  0  0  0  0  0  0  0  0  0  0  0
   14.7960   -0.2630   42.4780 N   0  0  0  0  0  0  0  0  0  0  0  0
   15.6770    1.8580   42.4430 N   0  0  0  0  0  0  0  0  0  0  0  0
    8.9660    3.7040   40.3040 N   0  0  0  0  0  0  0  0  0  0  0  0
    7.8980    4.6510   40.5500 C   0  0  2  0  0  0  0  0  0  0  0  0
    6.7060    4.3780   39.6920 C   0  0  0  0  0  0  0  0  0  0  0  0
    5.6000    4.5970   40.0920 O   0  0  0  0  0  0  0  0  0  0  0  0
    8.3720    6.0750   40.3730 C   0  0  0  0  0  0  0  0  0  0  0  0
    9.5680    6.3960   41.2260 C   0  0  0  0  0  0  0  0  0  0  0  0
   10.1220    7.7530   40.9390 C   0  0  0  0  0  0  0  0  0  0  0  0
    9.1850    6.2630   42.6750 C   0  0  0  0  0  0  0  0  0  0  0  0
    6.9430    4.0090   38.4480 N   0  0  0  0  0  0  0  0  0  0  0  0
    5.8590    3.6260   37.5620 C   0  0  2  0  0  0  0  0  0  0  0  0
    5.1440    2.3650   37.9310 C   0  0  0  0  0  0  0  0  0  0  0  0
    3.9400    2.2760   37.8640 O   0  0  0  0  0  0  0  0  0  0  0  0
    6.3450    3.5040   36.1360 C   0  0  0  0  0  0  0  0  0  0  0  0
    6.4460    4.8110   35.3650 C   0  0  0  0  0  0  0  0  0  0  0  0
    7.2080    4.6130   34.0870 C   0  0  0  0  0  0  0  0  0  0  0  0
    5.0940    5.3900   35.0880 C   0  0  0  0  0  0  0  0  0  0  0  0
    5.9220    1.3680   38.2920 N   0  0  0  0  0  0  0  0  0  0  0  0
    5.3850    0.0240   38.5040 C   0  0  2  0  0  0  0  0  0  0  0  0
    4.3730   -0.0480   39.6480 C   0  0  0  0  0  0  0  0  0  0  0  0
    3.7140   -1.0690   39.8370 O   0  0  0  0  0  0  0  0  0  0  0  0
    6.5310   -0.9610   38.7630 C   0  0  0  0  0  0  0  0  0  0  0  0
    6.1960   -2.4130   38.4560 C   0  0  0  0  0  0  0  0  0  0  0  0
    7.3830   -3.3370   38.6520 C   0  0  0  0  0  0  0  0  0  0  0  0
    8.2450   -3.0870   39.4970 O   0  0  0  0  0  0  0  0  0  0  0  0
    7.4370   -4.4080   37.8670 N   0  0  0  0  0  0  0  0  0  0  0  0
    4.2480    1.0350   40.4080 N   0  0  0  0  0  0  0  0  0  0  0  0
    3.2970    1.0810   41.5120 C   0  0  2  0  0  0  0  0  0  0  0  0
    1.8970    1.4680   41.0410 C   0  0  0  0  0  0  0  0  0  0  0  0
    0.9210    0.7710   41.3270 O   0  0  0  0  0  0  0  0  0  0  0  0
    3.7800    2.0540   42.5870 C   0  0  0  0  0  0  0  0  0  0  0  0
    4.9550    1.5090   43.3710 C   0  0  0  0  0  0  0  0  0  0  0  0
    5.5610    0.5140   42.9170 O   0  0  0  0  0  0  0  0  0  0  0  0
    5.2740    2.0710   44.4380 O   0  0  0  0  0  0  0  0  0  0  0  0
  2  1  1  6
  3  2  1  0
  4  3  2  0
  5  2  1  0
  6  5  1  0
  7  6  1  0
  8  7  1  0
  9  8  1  0
 10  3  1  0
 11 10  1  6
 12 11  1  0
 13 12  2  0
 14 11  1  0
 15 14  1  0
 14 16  1  1
 17 15  1  0
 18 12  1  0
 19 18  1  0
 20 19  1  0
 21 20  2  0
 19 22  1  6
 23 22  1  0
 24 23  1  0
 25 23  1  0
 26 20  1  0
 27 26  1  0
 28 27  1  0
 29 28  2  0
 27 30  1  1
 31 30  1  0
 32 31  1  0
 33 31  2  0
 34 32  2  0
 35 34  1  0
 35 33  1  0
 36 28  1  0
 37 36  1  0
 38 37  1  0
 39 38  2  0
 37 40  1  1
 41 40  1  0
 42 41  1  0
 43 42  1  0
 44 43  1  0
 45 44  1  0
 46 44  2  0
 47 38  1  0
 48 47  1  0
 49 48  1  0
 50 49  2  0
 48 51  1  6
 52 51  1  0
 53 52  1  0
 54 52  1  0
 55 49  1  0
 56 55  1  0
 57 56  1  0
 58 57  2  0
 56 59  1  6
 60 59  1  0
 61 60  1  0
 62 60  1  0
 63 57  1  0
 64 63  1  0
 65 64  1  0
 66 65  2  0
 64 67  1  1
 68 67  1  0
 69 68  1  0
 70 69  2  0
 71 69  1  0
 72 65  1  0
 73 72  1  0
 74 73  1  0
 75 74  2  0
 73 76  1  1
 77 76  1  0
 78 77  2  0
 79 77  1  0
M  END
$$$$
4MGB
     RDKit          3D

 76 76  0  0  0  0  0  0  0  0999 V2000
   -0.2880  -26.0880   20.0520 N   0  0  0  0  0  0  0  0  0  0  0  0
   -0.7300  -24.6970   20.1350 C   0  0  2  0  0  0  0  0  0  0  0  0
    0.2610  -23.7570   19.4460 C   0  0  0  0  0  0  0  0  0  0  0  0
    1.4700  -23.9950   19.4550 O   0  0  0  0  0  0  0  0  0  0  0  0
   -0.9480  -24.2850   21.5930 C   0  0  0  0  0  0  0  0  0  0  0  0
    0.3310  -24.0790   22.3870 C   0  0  0  0  0  0  0  0  0  0  0  0
    0.0780  -24.2000   23.8810 C   0  0  0  0  0  0  0  0  0  0  0  0
   -1.1290  -23.3820   24.3140 C   0  0  0  0  0  0  0  0  0  0  0  0
   -1.4570  -23.6160   25.7510 N   0  0  0  0  0  0  0  0  0  0  0  0
   -0.2640  -22.6920   18.8480 N   0  0  0  0  0  0  0  0  0  0  0  0
    0.5370  -21.7950   18.0200 C   0  0  2  0  0  0  0  0  0  0  0  0
    1.7680  -21.2520   18.7380 C   0  0  0  0  0  0  0  0  0  0  0  0
    2.8840  -21.3590   18.2310 O   0  0  0  0  0  0  0  0  0  0  0  0
   -0.2990  -20.6210   17.4890 C   0  0  2  0  0  0  0  0  0  0  0  0
   -1.6070  -21.1370   16.8850 C   0  0  0  0  0  0  0  0  0  0  0  0
    0.5010  -19.8190   16.4690 C   0  0  0  0  0  0  0  0  0  0  0  0
   -2.4640  -20.0550   16.2760 C   0  0  0  0  0  0  0  0  0  0  0  0
    1.5610  -20.6660   19.9130 N   0  0  0  0  0  0  0  0  0  0  0  0
    2.6590  -20.1210   20.7060 C   0  0  2  0  0  0  0  0  0  0  0  0
    3.7610  -21.1570   20.9260 C   0  0  0  0  0  0  0  0  0  0  0  0
    4.9510  -20.8670   20.7710 O   0  0  0  0  0  0  0  0  0  0  0  0
    2.1340  -19.6200   22.0540 C   0  0  0  0  0  0  0  0  0  0  0  0
    3.1820  -19.1320   23.0510 C   0  0  0  0  0  0  0  0  0  0  0  0
    3.9880  -18.0010   22.4480 C   0  0  0  0  0  0  0  0  0  0  0  0
    2.5160  -18.6880   24.3520 C   0  0  0  0  0  0  0  0  0  0  0  0
    3.3500  -22.3640   21.3010 N   0  0  0  0  0  0  0  0  0  0  0  0
    4.2670  -23.4800   21.4910 C   0  0  2  0  0  0  0  0  0  0  0  0
    5.1010  -23.7030   20.2300 C   0  0  0  0  0  0  0  0  0  0  0  0
    6.3210  -23.8730   20.2910 O   0  0  0  0  0  0  0  0  0  0  0  0
    3.4630  -24.7380   21.8150 C   0  0  0  0  0  0  0  0  0  0  0  0
    4.2750  -25.8480   22.4000 C   0  0  0  0  0  0  0  0  0  0  0  0
    4.7660  -26.8910   21.6430 N   0  0  0  0  0  0  0  0  0  0  0  0
    4.6700  -26.0870   23.6730 C   0  0  0  0  0  0  0  0  0  0  0  0
    5.4340  -27.7210   22.4240 C   0  0  0  0  0  0  0  0  0  0  0  0
    5.3900  -27.2570   23.6610 N   0  0  0  0  0  0  0  0  0  0  0  0
    4.4250  -23.6910   19.0860 N   0  0  0  0  0  0  0  0  0  0  0  0
    5.0680  -23.9110   17.7960 C   0  0  2  0  0  0  0  0  0  0  0  0
    6.0850  -22.8190   17.4760 C   0  0  0  0  0  0  0  0  0  0  0  0
    7.2090  -23.1040   17.0570 O   0  0  0  0  0  0  0  0  0  0  0  0
    4.0100  -23.9840   16.6890 C   0  0  0  0  0  0  0  0  0  0  0  0
    4.5740  -24.2500   15.3060 C   0  0  0  0  0  0  0  0  0  0  0  0
    3.4790  -24.6240   14.3220 C   0  0  0  0  0  0  0  0  0  0  0  0
    2.6350  -23.4910   13.9510 N   0  0  0  0  0  0  0  0  0  0  0  0
    2.9550  -22.5980   13.0180 C   0  0  0  0  0  0  0  0  0  0  0  0
    4.1100  -22.6970   12.3730 N   0  0  0  0  0  0  0  0  0  0  0  0
    2.1280  -21.6010   12.7340 N   0  0  0  0  0  0  0  0  0  0  0  0
    5.6840  -21.5690   17.6780 N   0  0  0  0  0  0  0  0  0  0  0  0
    6.5400  -20.4300   17.3710 C   0  0  2  0  0  0  0  0  0  0  0  0
    7.7660  -20.3680   18.2780 C   0  0  0  0  0  0  0  0  0  0  0  0
    8.8430  -19.9490   17.8510 O   0  0  0  0  0  0  0  0  0  0  0  0
    5.7430  -19.1280   17.4590 C   0  0  0  0  0  0  0  0  0  0  0  0
    4.5320  -19.0530   16.5290 C   0  0  0  0  0  0  0  0  0  0  0  0
    3.7920  -17.7450   16.7070 C   0  0  0  0  0  0  0  0  0  0  0  0
    4.9660  -19.2310   15.0810 C   0  0  0  0  0  0  0  0  0  0  0  0
    7.5990  -20.7810   19.5290 N   0  0  0  0  0  0  0  0  0  0  0  0
    8.7100  -20.8110   20.4760 C   0  0  2  0  0  0  0  0  0  0  0  0
    9.7590  -21.8570   20.1000 C   0  0  0  0  0  0  0  0  0  0  0  0
   10.9180  -21.7530   20.5020 O   0  0  0  0  0  0  0  0  0  0  0  0
    8.2030  -21.0660   21.8960 C   0  0  0  0  0  0  0  0  0  0  0  0
    7.8260  -19.8240   22.7030 C   0  0  0  0  0  0  0  0  0  0  0  0
    7.0810  -20.2110   23.9810 C   0  0  0  0  0  0  0  0  0  0  0  0
    9.0750  -19.0150   23.0230 C   0  0  0  0  0  0  0  0  0  0  0  0
    9.3450  -22.8610   19.3320 N   0  0  0  0  0  0  0  0  0  0  0  0
   10.2470  -23.9300   18.9100 C   0  0  2  0  0  0  0  0  0  0  0  0
   10.8820  -23.6660   17.5440 C   0  0  0  0  0  0  0  0  0  0  0  0
   12.0780  -23.8840   17.3570 O   0  0  0  0  0  0  0  0  0  0  0  0
    9.5180  -25.2770   18.8900 C   0  0  0  0  0  0  0  0  0  0  0  0
    9.4220  -25.9580   20.2430 C   0  0  0  0  0  0  0  0  0  0  0  0
    8.8020  -27.3420   20.1570 C   0  0  0  0  0  0  0  0  0  0  0  0
    7.8750  -27.5720   19.3810 O   0  0  0  0  0  0  0  0  0  0  0  0
    9.3180  -28.2730   20.9510 N   0  0  0  0  0  0  0  0  0  0  0  0
   10.0730  -23.2030   16.5950 N   0  0  0  0  0  0  0  0  0  0  0  0
   10.5380  -22.9560   15.2330 C   0  0  2  0  0  0  0  0  0  0  0  0
   11.8540  -22.1830   15.2080 C   0  0  0  0  0  0  0  0  0  0  0  0
   11.8850  -21.0000   14.8700 O   0  0  0  0  0  0  0  0  0  0  0  0
    9.4710  -22.2020   14.4330 C   0  0  0  0  0  0  0  0  0  0  0  0
  2  1  1  1
  3  2  1  0
  4  3  2  0
  5  2  1  0
  6  5  1  0
  7  6  1  0
  8  7  1  0
  9  8  1  0
 10  3  1  0
 11 10  1  1
 12 11  1  0
 13 12  2  0
 14 11  1  0
 15 14  1  0
 14 16  1  6
 17 15  1  0
 18 12  1  0
 19 18  1  0
 20 19  1  0
 21 20  2  0
 19 22  1  1
 23 22  1  0
 24 23  1  0
 25 23  1  0
 26 20  1  0
 27 26  1  0
 28 27  1  0
 29 28  2  0
 27 30  1  6
 31 30  1  0
 32 31  1  0
 33 31  2  0
 34 32  2  0
 35 34  1  0
 35 33  1  0
 36 28  1  0
 37 36  1  0
 38 37  1  0
 39 38  2  0
 37 40  1  6
 41 40  1  0
 42 41  1  0
 43 42  1  0
 44 43  1  0
 45 44  1  0
 46 44  2  0
 47 38  1  0
 48 47  1  0
 49 48  1  0
 50 49  2  0
 48 51  1  1
 52 51  1  0
 53 52  1  0
 54 52  1  0
 55 49  1  0
 56 55  1  0
 57 56  1  0
 58 57  2  0
 56 59  1  1
 60 59  1  0
 61 60  1  0
 62 60  1  0
 63 57  1  0
 64 63  1  0
 65 64  1  0
 66 65  2  0
 64 67  1  6
 68 67  1  0
 69 68  1  0
 70 69  2  0
 71 69  1  0
 72 65  1  0
 73 72  1  0
 74 73  1  0
 75 74  2  0
 73 76  1  6
M  END
$$$$
6SBO
     RDKit          3D

 38 42  0  0  0  0  0  0  0  0999 V2000
   44.1740    4.0610   16.5080 C   0  0  0  0  0  0  0  0  0  0  0  0
   41.8540    4.3250   15.8300 C   0  0  0  0  0  0  0  0  0  0  0  0
   42.9360    3.4900   16.1720 C   0  0  0  0  0  0  0  0  0  0  0  0
   42.7870    2.0090   16.2240 C   0  0  0  0  0  0  0  0  0  0  0  0
   40.4830    3.7850   15.4670 C   0  0  0  0  0  0  0  0  0  0  0  0
   42.1480    1.3580   15.2120 C   0  0  0  0  0  0  0  0  0  0  0  0
   40.4300    2.9750   14.1610 C   0  0  0  0  0  0  0  0  0  0  0  0
   41.6360    2.0540   13.9760 C   0  0  0  0  0  0  0  0  0  0  0  0
   43.4110    7.7380   16.2960 C   0  0  0  0  0  0  0  0  0  0  0  0
   43.3830    1.3660   17.4250 C   0  0  2  0  0  0  0  0  0  0  0  0
   41.9400   -0.1230   15.2390 C   0  0  1  0  0  0  0  0  0  0  0  0
   44.3330    5.4340   16.5000 C   0  0  0  0  0  0  0  0  0  0  0  0
   43.2700    6.2680   16.1670 C   0  0  1  0  0  0  0  0  0  0  0  0
   42.0380    5.7050   15.8300 C   0  0  0  0  0  0  0  0  0  0  0  0
   44.5310    8.1180   16.8710 O   0  0  0  0  0  0  0  0  0  0  0  0
   40.9370   -0.7300   15.9990 C   0  0  0  0  0  0  0  0  0  0  0  0
   40.6730   -2.0830   15.9020 C   0  0  0  0  0  0  0  0  0  0  0  0
   41.4350   -2.8420   15.0400 C   0  0  2  0  0  0  0  0  0  0  0  0
   42.4640   -2.2930   14.3070 C   0  0  0  0  0  0  0  0  0  0  0  0
   42.7140   -0.9370   14.4070 C   0  0  0  0  0  0  0  0  0  0  0  0
   41.0430   -4.5220   14.8180 Cl  0  0  0  0  0  0  0  0  0  0  0  0
   39.9670    0.1940   17.0870 Cl  0  0  0  0  0  0  0  0  0  0  0  0
   43.0110    1.7890   18.6980 C   0  0  0  0  0  0  0  0  0  0  0  0
   43.6420    1.2820   19.8200 C   0  0  0  0  0  0  0  0  0  0  0  0
   44.6270    0.3080   19.6820 C   0  0  1  0  0  0  0  0  0  0  0  0
   45.0000   -0.1310   18.4230 C   0  0  0  0  0  0  0  0  0  0  0  0
   44.3810    0.3960   17.3020 C   0  0  0  0  0  0  0  0  0  0  0  0
   45.3450   -0.1590   20.7610 O   0  0  0  0  0  0  0  0  0  0  0  0
   45.2270    0.6390   21.9710 C   0  0  2  0  0  0  0  0  0  0  0  0
   46.3130    0.2590   22.9450 C   0  0  0  0  0  0  0  0  0  0  0  0
   45.9250    1.0020   24.1520 N   0  0  0  0  0  0  0  0  0  0  0  0
   44.4750    1.2680   24.0140 C   0  0  0  0  0  0  0  0  0  0  0  0
   44.0160    0.5140   22.7890 C   0  0  0  0  0  0  0  0  0  0  0  0
   46.1770    0.1770   25.3400 C   0  0  0  0  0  0  0  0  0  0  0  0
   45.7870    0.8350   26.6490 C   0  0  0  0  0  0  0  0  0  0  0  0
   46.6650    2.0340   27.0180 C   0  0  0  0  0  0  0  0  0  0  0  0
   47.8140    1.5130   27.5010 F   0  0  0  0  0  0  0  0  0  0  0  0
   42.5840    8.5070   15.8520 O   0  0  0  0  0  0  0  0  0  0  0  0
  3  2  1  0
  3  1  1  0
  4  3  1  0
  5  2  1  0
  6  4  1  0
  7  5  1  0
  8  7  1  0
  8  6  1  0
 10  4  1  6
 11  6  1  6
 12  1  1  0
 13  9  1  1
 13 12  1  0
 14  2  1  0
 14 13  1  0
 15  9  1  0
 16 11  1  0
 17 16  1  0
 18 17  1  0
 19 18  1  0
 20 19  1  0
 20 11  1  0
 18 21  1  6
 22 16  1  0
 23 10  1  0
 24 23  1  0
 25 24  1  0
 26 25  1  0
 27 10  1  0
 27 26  1  0
 25 28  1  6
 29 28  1  6
 30 29  1  0
 31 30  1  0
 32 31  1  0
 33 32  1  0
 33 29  1  0
 34 31  1  0
 35 34  1  0
 36 35  1  0
 37 36  1  0
 38  9  1  0
M  END
$$$$
9I6Z
     RDKit          3D

 42 43  0  0  0  0  0  0  0  0999 V2000
   28.3410    8.0110  -14.9470 N   0  0  0  0  0  0  0  0  0  0  0  0
   27.3670    9.0990  -14.8620 C   0  0  2  0  0  0  0  0  0  0  0  0
   27.9980   10.3180  -14.1950 C   0  0  0  0  0  0  0  0  0  0  0  0
   28.8310   10.1750  -13.3020 O   0  0  0  0  0  0  0  0  0  0  0  0
   26.1210    8.6410  -14.0930 C   0  0  0  0  0  0  0  0  0  0  0  0
   25.4350    7.4640  -14.7400 C   0  0  0  0  0  0  0  0  0  0  0  0
   24.5800    7.6440  -15.8150 C   0  0  0  0  0  0  0  0  0  0  0  0
   25.6840    6.1730  -14.3050 C   0  0  0  0  0  0  0  0  0  0  0  0
   23.9610    6.5530  -16.4180 C   0  0  0  0  0  0  0  0  0  0  0  0
   25.0660    5.0860  -14.9120 C   0  0  0  0  0  0  0  0  0  0  0  0
   24.2110    5.2820  -15.9650 C   0  0  0  0  0  0  0  0  0  0  0  0
   27.6340   11.5530  -14.6090 N   0  0  0  0  0  0  0  0  0  0  0  0
   28.2040   12.7520  -14.0120 C   0  0  2  0  0  0  0  0  0  0  0  0
   27.6320   13.0680  -12.6340 C   0  0  0  0  0  0  0  0  0  0  0  0
   26.5630   12.5850  -12.2680 O   0  0  0  0  0  0  0  0  0  0  0  0
   27.8410   13.8360  -15.0240 C   0  0  0  0  0  0  0  0  0  0  0  0
   26.5410   13.3630  -15.6000 C   0  0  0  0  0  0  0  0  0  0  0  0
   26.6600   11.8580  -15.6710 C   0  0  0  0  0  0  0  0  0  0  0  0
   28.3590   13.9000  -11.8890 N   0  0  0  0  0  0  0  0  0  0  0  0
   27.9740   14.2640  -10.5370 C   0  0  2  0  0  0  0  0  0  0  0  0
   26.8480   15.2950  -10.5100 C   0  0  0  0  0  0  0  0  0  0  0  0
   26.8910   16.2870  -11.2340 O   0  0  0  0  0  0  0  0  0  0  0  0
   29.1740   14.8130   -9.7870 C   0  0  0  0  0  0  0  0  0  0  0  0
   25.8470   15.0330   -9.6620 N   0  0  0  0  0  0  0  0  0  0  0  0
   24.8140   15.9960   -9.3170 C   0  0  1  0  0  0  0  0  0  0  0  0
   23.4950   15.6980  -10.0420 C   0  0  1  0  0  0  0  0  0  0  0  0
   23.6160   15.8200  -11.5440 C   0  0  0  0  0  0  0  0  0  0  0  0
   23.1290   14.3240   -9.7050 O   0  0  0  0  0  0  0  0  0  0  0  0
   21.7050   13.6610  -10.0360 P   0  0  0  0  0  0  0  0  0  0  0  0
   21.7200   13.2770  -11.5040 O   0  0  0  0  0  0  0  0  0  0  0  0
   21.6240   12.4610   -9.1140 O   0  0  0  0  0  0  0  0  0  0  0  0
   20.6590   14.7110   -9.7270 O   0  0  0  0  0  0  0  0  0  0  0  0
   24.6170   15.9650   -7.8050 C   0  0  0  0  0  0  0  0  0  0  0  0
   25.0200   15.0050   -7.1550 O   0  0  0  0  0  0  0  0  0  0  0  0
   24.0030   17.0210   -7.2640 N   0  0  0  0  0  0  0  0  0  0  0  0
   23.7760   17.1230   -5.8310 C   0  0  2  0  0  0  0  0  0  0  0  0
   22.3400   17.4420   -5.5180 C   0  0  0  0  0  0  0  0  0  0  0  0
   21.5730   17.8500   -6.3910 O   0  0  0  0  0  0  0  0  0  0  0  0
   24.7050   18.1720   -5.1910 C   0  0  0  0  0  0  0  0  0  0  0  0
   26.1620   17.7640   -5.3340 C   0  0  0  0  0  0  0  0  0  0  0  0
   24.4540   19.5700   -5.7560 C   0  0  0  0  0  0  0  0  0  0  0  0
   21.9500   17.3150   -4.3610 O   0  0  0  0  0  0  0  0  0  0  0  0
  2  1  1  1
  3  2  1  0
  4  3  2  0
  5  2  1  0
  6  5  1  0
  7  6  2  0
  8  6  1  0
  9  7  1  0
 10  8  2  0
 11 10  1  0
 11  9  2  0
 12  3  1  0
 13 12  1  0
 13 14  1  1
 15 14  2  0
 16 13  1  0
 17 16  1  0
 18 17  1  0
 18 12  1  0
 19 14  1  0
 20 19  1  0
 21 20  1  0
 22 21  2  0
 20 23  1  6
 24 21  1  0
 25 24  1  1
 26 25  1  0
 26 27  1  6
 28 26  1  0
 29 28  1  0
 30 29  1  0
 31 29  1  0
 32 29  1  0
 33 25  1  0
 34 33  1  0
 35 33  1  0
 36 35  1  6
 37 36  1  0
 38 37  2  0
 39 36  1  0
 40 39  1  0
 41 39  1  0
 42 37  1  0
M  END
$$$$
8ARY
     RDKit          3D

 42 43  0  0  0  0  0  0  0  0999 V2000
  -12.6090   -8.0490   14.8390 N   0  0  0  0  0  0  0  0  0  0  0  0
  -13.6230   -9.1330   14.6750 C   0  0  2  0  0  0  0  0  0  0  0  0
  -13.0160  -10.3620   14.0160 C   0  0  0  0  0  0  0  0  0  0  0  0
  -12.1570  -10.2640   13.1410 O   0  0  0  0  0  0  0  0  0  0  0  0
  -14.8310   -8.6230   13.8790 C   0  0  0  0  0  0  0  0  0  0  0  0
  -15.4430   -7.4160   14.4920 C   0  0  0  0  0  0  0  0  0  0  0  0
  -16.3970   -7.5430   15.4930 C   0  0  0  0  0  0  0  0  0  0  0  0
  -15.0230   -6.1390   14.1150 C   0  0  0  0  0  0  0  0  0  0  0  0
  -16.9550   -6.4160   16.0760 C   0  0  0  0  0  0  0  0  0  0  0  0
  -15.5800   -5.0090   14.6900 C   0  0  0  0  0  0  0  0  0  0  0  0
  -16.5460   -5.1450   15.6720 C   0  0  0  0  0  0  0  0  0  0  0  0
  -13.4170  -11.5750   14.4320 N   0  0  0  0  0  0  0  0  0  0  0  0
  -12.8430  -12.7800   13.8430 C   0  0  2  0  0  0  0  0  0  0  0  0
  -13.4240  -13.1160   12.4630 C   0  0  0  0  0  0  0  0  0  0  0  0
  -14.4790  -12.6540   12.0900 O   0  0  0  0  0  0  0  0  0  0  0  0
  -13.1760  -13.8280   14.9040 C   0  0  0  0  0  0  0  0  0  0  0  0
  -14.5190  -13.3890   15.4160 C   0  0  0  0  0  0  0  0  0  0  0  0
  -14.4540  -11.8740   15.4360 C   0  0  0  0  0  0  0  0  0  0  0  0
  -12.7050  -13.9470   11.7350 N   0  0  0  0  0  0  0  0  0  0  0  0
  -13.0660  -14.3200   10.4000 C   0  0  2  0  0  0  0  0  0  0  0  0
  -14.1890  -15.3530   10.4000 C   0  0  0  0  0  0  0  0  0  0  0  0
  -14.1490  -16.3370   11.1170 O   0  0  0  0  0  0  0  0  0  0  0  0
  -11.8670  -14.9210    9.7190 C   0  0  0  0  0  0  0  0  0  0  0  0
  -15.1740  -15.1030    9.5400 N   0  0  0  0  0  0  0  0  0  0  0  0
  -16.2470  -16.0480    9.1770 C   0  0  1  0  0  0  0  0  0  0  0  0
  -17.5630  -15.7480    9.9160 C   0  0  1  0  0  0  0  0  0  0  0  0
  -17.4130  -15.8810   11.4140 C   0  0  0  0  0  0  0  0  0  0  0  0
  -17.9000  -14.3680    9.5850 O   0  0  0  0  0  0  0  0  0  0  0  0
  -19.3220  -13.7200    9.9320 P   0  0  0  0  0  0  0  0  0  0  0  0
  -19.3790  -12.5010    9.0290 O   0  0  0  0  0  0  0  0  0  0  0  0
  -19.3430  -13.3810   11.4160 O   0  0  0  0  0  0  0  0  0  0  0  0
  -20.3540  -14.7570    9.6260 O   0  0  0  0  0  0  0  0  0  0  0  0
  -16.4230  -16.0500    7.6640 C   0  0  0  0  0  0  0  0  0  0  0  0
  -16.0460  -15.0750    7.0350 O   0  0  0  0  0  0  0  0  0  0  0  0
  -17.0230  -17.1130    7.1460 N   0  0  0  0  0  0  0  0  0  0  0  0
  -17.2760  -17.2160    5.7390 C   0  0  2  0  0  0  0  0  0  0  0  0
  -18.6950  -17.5510    5.4300 C   0  0  0  0  0  0  0  0  0  0  0  0
  -19.4850  -17.9170    6.2940 O   0  0  0  0  0  0  0  0  0  0  0  0
  -16.3780  -18.2440    5.0570 C   0  0  0  0  0  0  0  0  0  0  0  0
  -14.9320  -17.8420    5.1790 C   0  0  0  0  0  0  0  0  0  0  0  0
  -16.6230  -19.6470    5.5960 C   0  0  0  0  0  0  0  0  0  0  0  0
  -19.0670  -17.4430    4.2520 O   0  0  0  0  0  0  0  0  0  0  0  0
  2  1  1  6
  3  2  1  0
  4  3  2  0
  5  2  1  0
  6  5  1  0
  7  6  2  0
  8  6  1  0
  9  7  1  0
 10  8  2  0
 11  9  2  0
 11 10  1  0
 12  3  1  0
 13 12  1  0
 13 14  1  6
 15 14  2  0
 16 13  1  0
 17 16  1  0
 18 17  1  0
 18 12  1  0
 19 14  1  0
 20 19  1  0
 21 20  1  0
 22 21  2  0
 20 23  1  1
 24 21  1  0
 25 24  1  6
 26 25  1  0
 26 27  1  1
 28 26  1  0
 29 28  1  0
 30 29  1  0
 31 29  1  0
 32 29  1  0
 33 25  1  0
 34 33  1  0
 35 33  1  0
 36 35  1  1
 37 36  1  0
 38 37  2  0
 39 36  1  0
 40 39  1  0
 41 39  1  0
 42 37  1  0
M  END
$$$$
5TN1
     RDKit          3D

 79 79  0  0  0  0  0  0  0  0999 V2000
   -7.0910  -16.7300   19.0660 N   0  0  0  0  0  0  0  0  0  0  0  0
   -6.6010  -17.7120   18.1060 C   0  0  2  0  0  0  0  0  0  0  0  0
   -5.6850  -17.0450   17.0800 C   0  0  0  0  0  0  0  0  0  0  0  0
   -4.7030  -17.6420   16.6390 O   0  0  0  0  0  0  0  0  0  0  0  0
   -7.7690  -18.4110   17.4070 C   0  0  0  0  0  0  0  0  0  0  0  0
   -7.3910  -19.6980   16.6860 C   0  0  0  0  0  0  0  0  0  0  0  0
   -6.7530  -20.6880   17.6480 C   0  0  0  0  0  0  0  0  0  0  0  0
   -6.5710  -22.0510   17.0070 C   0  0  0  0  0  0  0  0  0  0  0  0
   -7.8800  -22.6780   16.6690 N   0  0  0  0  0  0  0  0  0  0  0  0
   -6.0090  -15.8040   16.7030 N   0  0  0  0  0  0  0  0  0  0  0  0
   -5.1450  -15.0570   15.7890 C   0  0  2  0  0  0  0  0  0  0  0  0
   -3.7870  -14.8060   16.4280 C   0  0  0  0  0  0  0  0  0  0  0  0
   -2.7420  -14.9320   15.7760 O   0  0  0  0  0  0  0  0  0  0  0  0
   -5.8170  -13.7380   15.3660 C   0  0  2  0  0  0  0  0  0  0  0  0
   -7.0720  -14.0180   14.5360 C   0  0  0  0  0  0  0  0  0  0  0  0
   -4.8440  -12.8560   14.5880 C   0  0  0  0  0  0  0  0  0  0  0  0
   -7.7450  -12.7660   14.0260 C   0  0  0  0  0  0  0  0  0  0  0  0
   -3.7810  -14.4530   17.7160 N   0  0  0  0  0  0  0  0  0  0  0  0
   -2.5300  -14.1670   18.4110 C   0  0  2  0  0  0  0  0  0  0  0  0
   -1.6210  -15.3920   18.4490 C   0  0  0  0  0  0  0  0  0  0  0  0
   -0.3960  -15.2670   18.3130 O   0  0  0  0  0  0  0  0  0  0  0  0
   -2.8310  -13.6640   19.8210 C   0  0  0  0  0  0  0  0  0  0  0  0
   -1.6580  -13.0510   20.5780 C   0  0  0  0  0  0  0  0  0  0  0  0
   -1.0720  -11.9180   19.7680 C   0  0  0  0  0  0  0  0  0  0  0  0
   -2.0970  -12.5600   21.9500 C   0  0  0  0  0  0  0  0  0  0  0  0
   -2.2040  -16.5860   18.6280 N   0  0  0  0  0  0  0  0  0  0  0  0
   -1.4320  -17.8250   18.5550 C   0  0  2  0  0  0  0  0  0  0  0  0
   -0.7380  -17.9630   17.2090 C   0  0  0  0  0  0  0  0  0  0  0  0
    0.4570  -18.2740   17.1390 O   0  0  0  0  0  0  0  0  0  0  0  0
   -2.3380  -19.0380   18.7870 C   0  0  0  0  0  0  0  0  0  0  0  0
   -2.6600  -19.2960   20.2220 C   0  0  0  0  0  0  0  0  0  0  0  0
   -3.7880  -18.7920   20.8330 N   0  0  0  0  0  0  0  0  0  0  0  0
   -2.0120  -20.0190   21.1660 C   0  0  0  0  0  0  0  0  0  0  0  0
   -3.8170  -19.1860   22.0940 C   0  0  0  0  0  0  0  0  0  0  0  0
   -2.7500  -19.9310   22.3220 N   0  0  0  0  0  0  0  0  0  0  0  0
   -1.4890  -17.7660   16.1220 N   0  0  0  0  0  0  0  0  0  0  0  0
   -0.9260  -17.8910   14.7830 C   0  0  2  0  0  0  0  0  0  0  0  0
    0.1670  -16.8610   14.5320 C   0  0  0  0  0  0  0  0  0  0  0  0
    1.1320  -17.1470   13.8110 O   0  0  0  0  0  0  0  0  0  0  0  0
   -2.0380  -17.7500   13.7420 C   0  0  0  0  0  0  0  0  0  0  0  0
   -1.6370  -18.0870   12.3130 C   0  0  0  0  0  0  0  0  0  0  0  0
   -2.7810  -17.8100   11.3400 C   0  0  0  0  0  0  0  0  0  0  0  0
   -4.0390  -18.4120   11.7830 N   0  0  0  0  0  0  0  0  0  0  0  0
   -5.0630  -17.7310   12.2930 C   0  0  0  0  0  0  0  0  0  0  0  0
   -4.9910  -16.4130   12.4220 N   0  0  0  0  0  0  0  0  0  0  0  0
   -6.1630  -18.3670   12.6720 N   0  0  0  0  0  0  0  0  0  0  0  0
    0.0400  -15.6640   15.1140 N   0  0  0  0  0  0  0  0  0  0  0  0
    1.0260  -14.6180   14.8600 C   0  0  2  0  0  0  0  0  0  0  0  0
    2.3330  -14.9050   15.5860 C   0  0  0  0  0  0  0  0  0  0  0  0
    3.4180  -14.6640   15.0410 O   0  0  0  0  0  0  0  0  0  0  0  0
    0.4670  -13.2570   15.2690 C   0  0  0  0  0  0  0  0  0  0  0  0
   -0.2530  -12.3920   14.2300 C   0  0  0  0  0  0  0  0  0  0  0  0
   -1.2970  -13.1750   13.4590 C   0  0  0  0  0  0  0  0  0  0  0  0
   -0.8890  -11.1790   14.9060 C   0  0  0  0  0  0  0  0  0  0  0  0
    2.2470  -15.4330   16.8120 N   0  0  0  0  0  0  0  0  0  0  0  0
    3.4460  -15.7410   17.5850 C   0  0  2  0  0  0  0  0  0  0  0  0
    4.2280  -16.9000   16.9720 C   0  0  0  0  0  0  0  0  0  0  0  0
    5.4650  -16.8880   16.9750 O   0  0  0  0  0  0  0  0  0  0  0  0
    3.0670  -16.0530   19.0330 C   0  0  0  0  0  0  0  0  0  0  0  0
    2.6450  -14.8670   19.9070 C   0  0  0  0  0  0  0  0  0  0  0  0
    2.0470  -15.3430   21.2160 C   0  0  0  0  0  0  0  0  0  0  0  0
    3.8330  -13.9490   20.1720 C   0  0  0  0  0  0  0  0  0  0  0  0
    3.5340  -17.9070   16.4370 N   0  0  0  0  0  0  0  0  0  0  0  0
    4.2450  -19.0250   15.8200 C   0  0  2  0  0  0  0  0  0  0  0  0
    4.9240  -18.6210   14.5150 C   0  0  0  0  0  0  0  0  0  0  0  0
    5.9510  -19.2030   14.1470 O   0  0  0  0  0  0  0  0  0  0  0  0
    3.2910  -20.1930   15.5800 C   0  0  0  0  0  0  0  0  0  0  0  0
    2.8460  -20.8920   16.8500 C   0  0  0  0  0  0  0  0  0  0  0  0
    1.9170  -22.0520   16.5720 C   0  0  0  0  0  0  0  0  0  0  0  0
    1.1940  -22.0550   15.5760 O   0  0  0  0  0  0  0  0  0  0  0  0
    1.9350  -23.0500   17.4490 N   0  0  0  0  0  0  0  0  0  0  0  0
    4.3790  -17.6380   13.8080 N   0  0  0  0  0  0  0  0  0  0  0  0
    4.9770  -17.1640   12.5640 C   0  0  2  0  0  0  0  0  0  0  0  0
    5.6750  -15.8230   12.7650 C   0  0  0  0  0  0  0  0  0  0  0  0
    6.2890  -15.2910   11.8410 O   0  0  0  0  0  0  0  0  0  0  0  0
    3.9130  -17.0480   11.4700 C   0  0  0  0  0  0  0  0  0  0  0  0
    3.2080  -18.3650   11.2030 C   0  0  0  0  0  0  0  0  0  0  0  0
    3.8360  -19.4280   11.4080 O   0  0  0  0  0  0  0  0  0  0  0  0
    2.0270  -18.3380   10.7880 O   0  0  0  0  0  0  0  0  0  0  0  0
  2  1  1  1
  3  2  1  0
  4  3  2  0
  5  2  1  0
  6  5  1  0
  7  6  1  0
  8  7  1  0
  9  8  1  0
 10  3  1  0
 11 10  1  1
 12 11  1  0
 13 12  2  0
 14 11  1  0
 15 14  1  0
 14 16  1  6
 17 15  1  0
 18 12  1  0
 19 18  1  0
 20 19  1  0
 21 20  2  0
 19 22  1  1
 23 22  1  0
 24 23  1  0
 25 23  1  0
 26 20  1  0
 27 26  1  0
 28 27  1  0
 29 28  2  0
 27 30  1  6
 31 30  1  0
 32 31  1  0
 33 31  2  0
 34 32  2  0
 35 33  1  0
 35 34  1  0
 36 28  1  0
 37 36  1  0
 38 37  1  0
 39 38  2  0
 37 40  1  6
 41 40  1  0
 42 41  1  0
 43 42  1  0
 44 43  1  0
 45 44  1  0
 46 44  2  0
 47 38  1  0
 48 47  1  0
 49 48  1  0
 50 49  2  0
 48 51  1  1
 52 51  1  0
 53 52  1  0
 54 52  1  0
 55 49  1  0
 56 55  1  0
 57 56  1  0
 58 57  2  0
 56 59  1  1
 60 59  1  0
 61 60  1  0
 62 60  1  0
 63 57  1  0
 64 63  1  0
 65 64  1  0
 66 65  2  0
 64 67  1  6
 68 67  1  0
 69 68  1  0
 70 69  2  0
 71 69  1  0
 72 65  1  0
 73 72  1  0
 74 73  1  0
 75 74  2  0
 73 76  1  6
 77 76  1  0
 78 77  2  0
 79 77  1  0
M  END
$$$$
3ERT
     RDKit          3D

 29 31  0  0  0  0  0  0  0  0999 V2000
   30.5740    1.4650   29.5500 C   0  0  0  0  0  0  0  0  0  0  0  0
   30.7020   -0.0230   29.3720 C   0  0  0  0  0  0  0  0  0  0  0  0
   31.3630   -0.3880   28.0590 C   0  0  0  0  0  0  0  0  0  0  0  0
   32.7880    0.0530   27.9620 C   0  0  0  0  0  0  0  0  0  0  0  0
   33.2410    0.7820   26.8420 C   0  0  0  0  0  0  0  0  0  0  0  0
   34.5590    1.2350   26.7760 C   0  0  0  0  0  0  0  0  0  0  0  0
   35.4510    0.9800   27.7990 C   0  0  0  0  0  0  0  0  0  0  0  0
   35.0270    0.2700   28.8970 C   0  0  0  0  0  0  0  0  0  0  0  0
   33.7070   -0.1880   28.9760 C   0  0  0  0  0  0  0  0  0  0  0  0
   30.7080   -1.0570   27.0650 C   0  0  0  0  0  0  0  0  0  0  0  0
   29.2100   -1.2330   27.0160 C   0  0  0  0  0  0  0  0  0  0  0  0
   28.6090   -2.4900   26.6950 C   0  0  0  0  0  0  0  0  0  0  0  0
   27.2150   -2.6130   26.6050 C   0  0  0  0  0  0  0  0  0  0  0  0
   26.4090   -1.4820   26.8350 C   0  0  0  0  0  0  0  0  0  0  0  0
   25.0580   -1.6220   26.7220 O   0  0  0  0  0  0  0  0  0  0  0  0
   26.9920   -0.2350   27.1560 C   0  0  0  0  0  0  0  0  0  0  0  0
   28.3750   -0.1340   27.2390 C   0  0  0  0  0  0  0  0  0  0  0  0
   31.4110   -1.6900   25.9450 C   0  0  0  0  0  0  0  0  0  0  0  0
   32.5290   -2.4960   26.1460 C   0  0  0  0  0  0  0  0  0  0  0  0
   33.1820   -3.1140   25.1170 C   0  0  0  0  0  0  0  0  0  0  0  0
   32.7250   -2.9440   23.8200 C   0  0  0  0  0  0  0  0  0  0  0  0
   33.2960   -3.5540   22.7400 O   0  0  0  0  0  0  0  0  0  0  0  0
   32.9000   -3.1830   21.4230 C   0  0  0  0  0  0  0  0  0  0  0  0
   34.0590   -3.5080   20.5200 C   0  0  0  0  0  0  0  0  0  0  0  0
   34.1090   -4.8870   20.1180 N   0  0  0  0  0  0  0  0  0  0  0  0
   33.3900   -5.1110   18.8630 C   0  0  0  0  0  0  0  0  0  0  0  0
   35.5060   -5.2910   19.9220 C   0  0  0  0  0  0  0  0  0  0  0  0
   31.6010   -2.1350   23.5790 C   0  0  0  0  0  0  0  0  0  0  0  0
   30.9660   -1.5280   24.6260 C   0  0  0  0  0  0  0  0  0  0  0  0
  2  1  1  0
  3  2  1  0
  4  3  1  0
  5  4  1  0
  6  5  1  0
  7  6  1  0
  8  7  1  0
  9  8  1  0
  9  4  1  0
 10  3  1  0
 11 10  1  0
 12 11  1  0
 13 12  1  0
 14 13  1  0
 15 14  1  0
 16 14  1  0
 17 16  1  0
 17 11  1  0
 18 10  1  0
 19 18  1  0
 20 19  1  0
 21 20  1  0
 22 21  1  0
 23 22  1  0
 24 23  1  0
 25 24  1  0
 26 25  1  0
 27 25  1  0
 28 21  1  0
 29 28  1  0
 29 18  1  0
M  END
$$$$
5TLO
     RDKit          3D

 68 67  0  0  0  0  0  0  0  0999 V2000
  -10.9890   -2.2480    6.2850 N   0  0  0  0  0  0  0  0  0  0  0  0
  -10.5190   -0.8890    6.5290 C   0  0  2  0  0  0  0  0  0  0  0  0
  -11.5010   -0.1270    7.4140 C   0  0  0  0  0  0  0  0  0  0  0  0
  -12.6520   -0.5350    7.5730 O   0  0  0  0  0  0  0  0  0  0  0  0
  -10.3070   -0.1510    5.2060 C   0  0  0  0  0  0  0  0  0  0  0  0
  -11.5600   -0.0310    4.3570 C   0  0  0  0  0  0  0  0  0  0  0  0
  -11.2510    0.5530    2.9870 C   0  0  0  0  0  0  0  0  0  0  0  0
  -10.3500   -0.3710    2.1820 C   0  0  0  0  0  0  0  0  0  0  0  0
  -10.0910    0.1610    0.8150 N   0  0  0  0  0  0  0  0  0  0  0  0
  -11.0370    0.9850    7.9900 N   0  0  0  0  0  0  0  0  0  0  0  0
  -11.8720    1.7500    8.9120 C   0  0  2  0  0  0  0  0  0  0  0  0
  -13.0330    2.4030    8.1730 C   0  0  0  0  0  0  0  0  0  0  0  0
  -14.1410    2.5200    8.7110 O   0  0  0  0  0  0  0  0  0  0  0  0
  -11.0190    2.7890    9.6620 C   0  0  2  0  0  0  0  0  0  0  0  0
   -9.8450    2.1030   10.3610 C   0  0  0  0  0  0  0  0  0  0  0  0
  -11.8640    3.5490   10.6730 C   0  0  0  0  0  0  0  0  0  0  0  0
   -9.0040    3.0380   11.1940 C   0  0  0  0  0  0  0  0  0  0  0  0
  -12.8020    2.8370    6.9310 N   0  0  0  0  0  0  0  0  0  0  0  0
  -13.8700    3.4580    6.1540 C   0  0  2  0  0  0  0  0  0  0  0  0
  -15.0200    2.4910    5.9080 C   0  0  0  0  0  0  0  0  0  0  0  0
  -16.1800    2.9120    5.8330 O   0  0  0  0  0  0  0  0  0  0  0  0
  -13.3150    3.9800    4.8270 C   0  0  0  0  0  0  0  0  0  0  0  0
  -14.3090    4.6500    3.8760 C   0  0  0  0  0  0  0  0  0  0  0  0
  -15.0270    5.7900    4.5710 C   0  0  0  0  0  0  0  0  0  0  0  0
  -13.6070    5.1460    2.6260 C   0  0  0  0  0  0  0  0  0  0  0  0
  -14.7230    1.1950    5.7900 N   0  0  0  0  0  0  0  0  0  0  0  0
  -15.7800    0.2100    5.5860 C   0  0  2  0  0  0  0  0  0  0  0  0
  -16.6040    0.0200    6.8530 C   0  0  0  0  0  0  0  0  0  0  0  0
  -17.8400    0.0160    6.8060 O   0  0  0  0  0  0  0  0  0  0  0  0
  -15.1760   -1.1190    5.1300 C   0  0  0  0  0  0  0  0  0  0  0  0
  -15.9350   -0.1330    7.9990 N   0  0  0  0  0  0  0  0  0  0  0  0
  -16.6490   -0.3510    9.2520 C   0  0  2  0  0  0  0  0  0  0  0  0
  -17.4540    0.8730    9.6680 C   0  0  0  0  0  0  0  0  0  0  0  0
  -18.5280    0.7310   10.2640 O   0  0  0  0  0  0  0  0  0  0  0  0
  -15.6650   -0.7380   10.3560 C   0  0  0  0  0  0  0  0  0  0  0  0
  -16.9580    2.0770    9.3720 N   0  0  0  0  0  0  0  0  0  0  0  0
  -17.7100    3.2790    9.7130 C   0  0  2  0  0  0  0  0  0  0  0  0
  -18.9220    3.4590    8.8090 C   0  0  0  0  0  0  0  0  0  0  0  0
  -19.9360    4.0220    9.2380 O   0  0  0  0  0  0  0  0  0  0  0  0
  -16.8030    4.5070    9.6460 C   0  0  0  0  0  0  0  0  0  0  0  0
  -15.8140    4.6520   10.8050 C   0  0  0  0  0  0  0  0  0  0  0  0
  -14.9260    5.8670   10.6070 C   0  0  0  0  0  0  0  0  0  0  0  0
  -16.5590    4.7400   12.1280 C   0  0  0  0  0  0  0  0  0  0  0  0
  -18.8400    2.9930    7.5610 N   0  0  0  0  0  0  0  0  0  0  0  0
  -20.0060    3.0280    6.6840 C   0  0  2  0  0  0  0  0  0  0  0  0
  -21.0290    1.9680    7.0720 C   0  0  0  0  0  0  0  0  0  0  0  0
  -22.2170    2.1150    6.7640 O   0  0  0  0  0  0  0  0  0  0  0  0
  -19.5770    2.8430    5.2280 C   0  0  0  0  0  0  0  0  0  0  0  0
  -18.9420    4.0510    4.5390 C   0  0  0  0  0  0  0  0  0  0  0  0
  -18.2620    3.6290    3.2490 C   0  0  0  0  0  0  0  0  0  0  0  0
  -19.9910    5.1140    4.2630 C   0  0  0  0  0  0  0  0  0  0  0  0
  -20.5890    0.9010    7.7440 N   0  0  0  0  0  0  0  0  0  0  0  0
  -21.5150   -0.1500    8.1550 C   0  0  2  0  0  0  0  0  0  0  0  0
  -22.4530    0.3340    9.2540 C   0  0  0  0  0  0  0  0  0  0  0  0
  -23.6380   -0.0220    9.2670 O   0  0  0  0  0  0  0  0  0  0  0  0
  -20.7390   -1.3820    8.6210 C   0  0  0  0  0  0  0  0  0  0  0  0
  -20.0850   -2.1720    7.5010 C   0  0  0  0  0  0  0  0  0  0  0  0
  -19.2730   -3.3450    8.0150 C   0  0  0  0  0  0  0  0  0  0  0  0
  -18.6650   -3.2730    9.0830 O   0  0  0  0  0  0  0  0  0  0  0  0
  -19.2650   -4.4360    7.2590 N   0  0  0  0  0  0  0  0  0  0  0  0
  -21.9460    1.1390   10.1830 N   0  0  0  0  0  0  0  0  0  0  0  0
  -22.7540    1.6520   11.2840 C   0  0  2  0  0  0  0  0  0  0  0  0
  -23.9020    2.5200   10.7770 C   0  0  0  0  0  0  0  0  0  0  0  0
  -24.0730    3.6580   11.2120 O   0  0  0  0  0  0  0  0  0  0  0  0
  -21.8870    2.4510   12.2600 C   0  0  0  0  0  0  0  0  0  0  0  0
  -20.9190    1.5760   13.0340 C   0  0  0  0  0  0  0  0  0  0  0  0
  -20.4550    0.5600   12.4760 O   0  0  0  0  0  0  0  0  0  0  0  0
  -20.6250    1.9050   14.2030 O   0  0  0  0  0  0  0  0  0  0  0  0
  2  1  1  6
  3  2  1  0
  4  3  2  0
  5  2  1  0
  6  5  1  0
  7  6  1  0
  8  7  1  0
  9  8  1  0
 10  3  1  0
 11 10  1  6
 12 11  1  0
 13 12  2  0
 14 11  1  0
 15 14  1  0
 14 16  1  1
 17 15  1  0
 18 12  1  0
 19 18  1  0
 20 19  1  0
 21 20  2  0
 19 22  1  6
 23 22  1  0
 24 23  1  0
 25 23  1  0
 26 20  1  0
 27 26  1  0
 28 27  1  0
 29 28  2  0
 27 30  1  1
 31 28  1  0
 32 31  1  0
 33 32  1  0
 34 33  2  0
 32 35  1  1
 36 33  1  0
 37 36  1  0
 38 37  1  0
 39 38  2  0
 37 40  1  6
 41 40  1  0
 42 41  1  0
 43 41  1  0
 44 38  1  0
 45 44  1  0
 46 45  1  0
 47 46  2  0
 45 48  1  6
 49 48  1  0
 50 49  1  0
 51 49  1  0
 52 46  1  0
 53 52  1  0
 54 53  1  0
 55 54  2  0
 53 56  1  1
 57 56  1  0
 58 57  1  0
 59 58  2  0
 60 58  1  0
 61 54  1  0
 62 61  1  0
 63 62  1  0
 64 63  2  0
 62 65  1  1
 66 65  1  0
 67 66  2  0
 68 66  1  0
M  END
$$$$
2JFA
     RDKit          3D

 34 38  0  0  0  0  0  0  0  0999 V2000
  -35.1830   44.6710   -1.2360 C   0  0  0  0  0  0  0  0  0  0  0  0
  -36.0880   45.6920   -0.9970 C   0  0  0  0  0  0  0  0  0  0  0  0
  -37.4430   45.5280   -1.2530 C   0  0  0  0  0  0  0  0  0  0  0  0
  -38.2900   46.5600   -1.0040 O   0  0  0  0  0  0  0  0  0  0  0  0
  -37.9320   44.3160   -1.7510 C   0  0  0  0  0  0  0  0  0  0  0  0
  -37.0540   43.2680   -1.9960 C   0  0  0  0  0  0  0  0  0  0  0  0
  -37.5130   41.7690   -2.6360 S   0  0  0  0  0  0  0  0  0  0  0  0
  -35.9080   41.1790   -2.5530 C   0  0  1  0  0  0  0  0  0  0  0  0
  -35.6160   39.8210   -3.0600 C   0  0  2  0  0  0  0  0  0  0  0  0
  -34.7840   38.9730   -2.3520 C   0  0  0  0  0  0  0  0  0  0  0  0
  -34.4660   37.7160   -2.8470 C   0  0  0  0  0  0  0  0  0  0  0  0
  -34.9490   37.3090   -4.0840 C   0  0  0  0  0  0  0  0  0  0  0  0
  -34.6040   36.0750   -4.5720 O   0  0  0  0  0  0  0  0  0  0  0  0
  -35.7720   38.1740   -4.8130 C   0  0  0  0  0  0  0  0  0  0  0  0
  -36.0950   39.4350   -4.3080 C   0  0  0  0  0  0  0  0  0  0  0  0
  -35.6410   43.4710   -1.7200 C   0  0  0  0  0  0  0  0  0  0  0  0
  -34.9870   42.2110   -2.0870 C   0  0  1  0  0  0  0  0  0  0  0  0
  -33.5310   42.0180   -1.9340 C   0  0  0  0  0  0  0  0  0  0  0  0
  -32.8350   41.9720   -2.9230 O   0  0  0  0  0  0  0  0  0  0  0  0
  -32.9310   41.8340   -0.5840 C   0  0  0  0  0  0  0  0  0  0  0  0
  -33.7450   41.5550    0.4920 C   0  0  0  0  0  0  0  0  0  0  0  0
  -33.1970   41.3750    1.7460 C   0  0  0  0  0  0  0  0  0  0  0  0
  -31.8280   41.4690    1.9390 C   0  0  0  0  0  0  0  0  0  0  0  0
  -30.9980   41.7440    0.8590 C   0  0  0  0  0  0  0  0  0  0  0  0
  -31.5580   41.9220   -0.4030 C   0  0  0  0  0  0  0  0  0  0  0  0
  -31.3740   41.2630    3.2020 O   0  0  0  0  0  0  0  0  0  0  0  0
  -30.0420   41.5210    3.6460 C   0  0  0  0  0  0  0  0  0  0  0  0
  -29.8920   40.9400    5.0440 C   0  0  0  0  0  0  0  0  0  0  0  0
  -30.4090   41.8920    6.0470 N   0  0  0  0  0  0  0  0  0  0  0  0
  -31.8880   41.8220    6.1220 C   0  0  0  0  0  0  0  0  0  0  0  0
  -32.4910   42.4250    7.3870 C   0  0  0  0  0  0  0  0  0  0  0  0
  -31.7410   41.9950    8.6350 C   0  0  0  0  0  0  0  0  0  0  0  0
  -30.2850   42.3940    8.4690 C   0  0  0  0  0  0  0  0  0  0  0  0
  -29.7150   41.5830    7.3200 C   0  0  0  0  0  0  0  0  0  0  0  0
  2  1  1  0
  3  2  1  0
  4  3  1  0
  5  3  1  0
  6  5  1  0
  7  6  1  0
  8  7  1  6
  9  8  1  0
  9 10  1  6
 11 10  1  0
 12 11  1  0
 13 12  1  0
 14 12  1  0
 15 14  1  0
 15  9  1  0
 16  6  1  0
 16  1  1  0
 17 16  1  0
 17  8  1  0
 17 18  1  1
 19 18  1  0
 20 18  1  0
 21 20  1  0
 22 21  1  0
 23 22  1  0
 24 23  1  0
 25 20  1  0
 25 24  1  0
 26 23  1  0
 27 26  1  0
 28 27  1  0
 29 28  1  0
 30 29  1  0
 31 30  1  0
 32 31  1  0
 33 32  1  0
 34 33  1  0
 34 29  1  0
M  END
$$$$
5T92
     RDKit          3D

 30 33  0  0  0  0  0  0  0  0999 V2000
  -41.6380   10.6350  -24.8580 C   0  0  0  0  0  0  0  0  0  0  0  0
  -40.6980   11.4120  -24.1620 C   0  0  0  0  0  0  0  0  0  0  0  0
  -39.4050   10.9270  -23.9700 C   0  0  0  0  0  0  0  0  0  0  0  0
  -40.4440    6.4050  -25.0810 C   0  0  0  0  0  0  0  0  0  0  0  0
  -39.6730    7.5950  -27.2810 C   0  0  0  0  0  0  0  0  0  0  0  0
  -37.5410    5.9350  -25.8800 C   0  0  2  0  0  0  0  0  0  0  0  0
  -37.1830    5.8500  -27.2440 C   0  0  0  0  0  0  0  0  0  0  0  0
  -36.7240    4.6450  -27.7890 C   0  0  0  0  0  0  0  0  0  0  0  0
  -36.6010    3.5120  -26.9710 C   0  0  0  0  0  0  0  0  0  0  0  0
  -36.9330    3.5790  -25.6060 C   0  0  0  0  0  0  0  0  0  0  0  0
  -37.4180    4.7870  -25.0650 C   0  0  0  0  0  0  0  0  0  0  0  0
  -38.9930    8.6170  -27.9830 C   0  0  0  0  0  0  0  0  0  0  0  0
  -39.0950    8.7540  -29.3750 C   0  0  0  0  0  0  0  0  0  0  0  0
  -39.9450    7.9120  -30.1030 C   0  0  2  0  0  0  0  0  0  0  0  0
  -40.6270    6.8810  -29.4260 C   0  0  0  0  0  0  0  0  0  0  0  0
  -40.4980    6.7340  -28.0320 C   0  0  0  0  0  0  0  0  0  0  0  0
  -39.9890    8.1250  -31.6070 C   0  0  0  0  0  0  0  0  0  0  0  0
  -40.4880    7.2250  -32.4700 C   0  0  0  0  0  0  0  0  0  0  0  0
  -40.5170    7.3570  -33.9400 C   0  0  0  0  0  0  0  0  0  0  0  0
  -39.0110    9.6810  -24.4760 C   0  0  0  0  0  0  0  0  0  0  0  0
  -39.9380    8.8690  -25.1490 C   0  0  1  0  0  0  0  0  0  0  0  0
  -41.2510    9.3760  -25.3520 C   0  0  0  0  0  0  0  0  0  0  0  0
  -37.5530    9.2700  -24.2900 C   0  0  0  0  0  0  0  0  0  0  0  0
  -37.3400    7.7450  -24.2920 C   0  0  0  0  0  0  0  0  0  0  0  0
  -38.0950    7.0750  -25.3510 N   0  0  0  0  0  0  0  0  0  0  0  0
  -39.5010    7.4810  -25.7270 C   0  0  1  0  0  0  0  0  0  0  0  0
  -40.9950   12.6750  -23.6460 O   0  0  0  0  0  0  0  0  0  0  0  0
  -36.1900    2.3700  -27.5110 F   0  0  0  0  0  0  0  0  0  0  0  0
  -40.0290    8.3330  -34.4960 O   0  0  0  0  0  0  0  0  0  0  0  0
  -41.0430    6.3550  -34.6450 O   0  0  0  0  0  0  0  0  0  0  0  0
  2  1  1  0
  3  2  1  0
  7  6  1  0
  8  7  1  0
  9  8  1  0
 10  9  1  0
 11 10  1  0
 11  6  1  0
 12  5  1  0
 13 12  1  0
 14 13  1  0
 15 14  1  0
 16 15  1  0
 16  5  1  0
 14 17  1  6
 18 17  1  0
 19 18  1  0
 20  3  1  0
 21 20  1  0
 21 22  1  6
 22  1  1  0
 23 20  1  0
 24 23  1  0
 25 24  1  0
  6 25  1  6
 26  5  1  0
 26 21  1  0
 26  4  1  1
 26 25  1  0
 27  2  1  0
 28  9  1  0
 29 19  1  0
 30 19  1  0
M  END
$$$$
8DVB
     RDKit          3D

 38 43  0  0  0  0  0  0  0  0999 V2000
   -1.8040   -1.4960   27.3840 N   0  0  0  0  0  0  0  0  0  0  0  0
   -1.6470    2.6820   26.7300 C   0  0  0  0  0  0  0  0  0  0  0  0
   -1.7090    1.1710   26.8500 C   0  0  0  0  0  0  0  0  0  0  0  0
   -2.8230    0.5430   26.6190 C   0  0  0  0  0  0  0  0  0  0  0  0
   -0.4220    0.4990   27.2720 C   0  0  0  0  0  0  0  0  0  0  0  0
   -0.4740   -1.0100   27.0890 C   0  0  2  0  0  0  0  0  0  0  0  0
   -2.0140   -2.5910   28.3140 C   0  0  0  0  0  0  0  0  0  0  0  0
    0.4670   -5.1520   29.8310 C   0  0  0  0  0  0  0  0  0  0  0  0
    0.7240   -3.0050   30.9300 C   0  0  0  0  0  0  0  0  0  0  0  0
    0.2620   -1.0440   25.7220 C   0  0  0  0  0  0  0  0  0  0  0  0
   -2.7910   -0.9910   24.3020 C   0  0  0  0  0  0  0  0  0  0  0  0
   -3.0570   -1.6980   22.9850 C   0  0  0  0  0  0  0  0  0  0  0  0
   -3.6490   -2.8670   22.9610 C   0  0  0  0  0  0  0  0  0  0  0  0
   -3.8590   -2.9200   25.3940 C   0  0  0  0  0  0  0  0  0  0  0  0
   -4.4270   -1.9180   19.9970 C   0  0  2  0  0  0  0  0  0  0  0  0
   -6.1620   -2.9480   19.0390 C   0  0  0  0  0  0  0  0  0  0  0  0
   -4.0640    1.3460   26.2170 C   0  0  0  0  0  0  0  0  0  0  0  0
   -0.9070   -3.2920   29.1280 C   0  0  0  0  0  0  0  0  0  0  0  0
   -0.6090   -4.5250   28.9560 C   0  0  0  0  0  0  0  0  0  0  0  0
    1.1010   -4.4700   30.7500 C   0  0  0  0  0  0  0  0  0  0  0  0
   -0.2010   -2.4830   30.1870 C   0  0  0  0  0  0  0  0  0  0  0  0
    0.8420   -1.7790   26.8470 C   0  0  0  0  0  0  0  0  0  0  0  0
   -3.1700   -1.5690   25.4090 C   0  0  0  0  0  0  0  0  0  0  0  0
   -4.0040    2.6350   26.0870 C   0  0  0  0  0  0  0  0  0  0  0  0
   -4.0780   -3.5270   24.2590 C   0  0  0  0  0  0  0  0  0  0  0  0
   -3.4190   -3.0160   20.5750 C   0  0  0  0  0  0  0  0  0  0  0  0
   -5.7010   -2.3260   20.2880 C   0  0  0  0  0  0  0  0  0  0  0  0
   -4.2900   -1.7610   18.5170 C   0  0  0  0  0  0  0  0  0  0  0  0
   -2.7150    3.3640   26.3690 C   0  0  0  0  0  0  0  0  0  0  0  0
   -5.4370   -2.7640   17.0760 C   0  0  0  0  0  0  0  0  0  0  0  0
   -6.8700   -2.9110   16.5150 C   0  0  0  0  0  0  0  0  0  0  0  0
   -6.9320   -2.3810   15.0820 C   0  0  0  0  0  0  0  0  0  0  0  0
   -2.9400   -0.9380   26.7520 C   0  0  1  0  0  0  0  0  0  0  0  0
   -6.8110   -3.4680   14.2810 F   0  0  0  0  0  0  0  0  0  0  0  0
   -5.5200   -2.1660   18.0830 N   0  0  0  0  0  0  0  0  0  0  0  0
   -3.0850   -2.9190   28.4870 O   0  0  0  0  0  0  0  0  0  0  0  0
   -2.6660    4.7180   26.2150 O   0  0  0  0  0  0  0  0  0  0  0  0
   -3.9100   -3.5520   21.7710 O   0  0  0  0  0  0  0  0  0  0  0  0
  3  2  1  0
  4  3  1  0
  5  3  1  0
  6  5  1  1
  6  1  1  0
  7  1  1  0
 10  6  1  0
 12 11  1  0
 13 12  1  0
 17  4  1  0
 18  7  1  0
 19 18  1  0
 19  8  1  0
 20  9  1  0
 20  8  1  0
 21 18  1  0
 21  9  1  0
 22 10  1  0
 22  6  1  0
 23 14  1  0
 23 11  1  0
 24 17  1  0
 25 14  1  0
 25 13  1  0
 15 26  1  6
 27 16  1  0
 27 15  1  0
 28 15  1  0
 29 24  1  0
 29  2  1  0
 31 30  1  0
 32 31  1  0
 33 23  1  6
 33  4  1  0
 33  1  1  0
 34 32  1  0
 35 16  1  0
 35 30  1  0
 35 28  1  0
 36  7  1  0
 37 29  1  0
 38 26  1  0
 38 13  1  0
M  END
$$$$
5TLX
     RDKit          3D

 75 75  0  0  0  0  0  0  0  0999 V2000
    7.2370  -16.4200   35.1520 N   0  0  0  0  0  0  0  0  0  0  0  0
    6.6840  -15.2710   34.4440 C   0  0  2  0  0  0  0  0  0  0  0  0
    5.7510  -14.4800   35.3570 C   0  0  0  0  0  0  0  0  0  0  0  0
    4.6030  -14.8710   35.5690 O   0  0  0  0  0  0  0  0  0  0  0  0
    5.9380  -15.7230   33.1880 C   0  0  0  0  0  0  0  0  0  0  0  0
    5.9430  -14.7170   32.0470 C   0  0  0  0  0  0  0  0  0  0  0  0
    7.2180  -14.8230   31.2250 C   0  0  0  0  0  0  0  0  0  0  0  0
    7.0680  -14.1190   29.8860 C   0  0  0  0  0  0  0  0  0  0  0  0
    8.2390  -14.3480   28.9940 N   0  0  0  0  0  0  0  0  0  0  0  0
    6.2510  -13.3670   35.8990 N   0  0  0  0  0  0  0  0  0  0  0  0
    5.4450  -12.5590   36.8090 C   0  0  2  0  0  0  0  0  0  0  0  0
    4.2740  -11.9250   36.0700 C   0  0  0  0  0  0  0  0  0  0  0  0
    3.1610  -11.8360   36.6030 O   0  0  0  0  0  0  0  0  0  0  0  0
    6.3190  -11.4960   37.4990 C   0  0  2  0  0  0  0  0  0  0  0  0
    7.5300  -12.1490   38.1640 C   0  0  0  0  0  0  0  0  0  0  0  0
    5.5050  -10.7210   38.5260 C   0  0  0  0  0  0  0  0  0  0  0  0
    8.4280  -11.1680   38.8760 C   0  0  0  0  0  0  0  0  0  0  0  0
    4.5050  -11.4710   34.8350 N   0  0  0  0  0  0  0  0  0  0  0  0
    3.4250  -10.8900   34.0440 C   0  0  2  0  0  0  0  0  0  0  0  0
    2.3090  -11.8990   33.8100 C   0  0  0  0  0  0  0  0  0  0  0  0
    1.1230  -11.5600   33.9060 O   0  0  0  0  0  0  0  0  0  0  0  0
    3.9710  -10.3730   32.7130 C   0  0  0  0  0  0  0  0  0  0  0  0
    2.9470   -9.8820   31.6870 C   0  0  0  0  0  0  0  0  0  0  0  0
    2.0700   -8.7890   32.2740 C   0  0  0  0  0  0  0  0  0  0  0  0
    3.6460   -9.3900   30.4290 C   0  0  0  0  0  0  0  0  0  0  0  0
    2.6690  -13.1480   33.5070 N   0  0  0  0  0  0  0  0  0  0  0  0
    1.6590  -14.1830   33.3160 C   0  0  2  0  0  0  0  0  0  0  0  0
    0.8880  -14.4530   34.6000 C   0  0  0  0  0  0  0  0  0  0  0  0
   -0.3100  -14.7530   34.5540 O   0  0  0  0  0  0  0  0  0  0  0  0
    2.3150  -15.4650   32.8050 C   0  0  0  0  0  0  0  0  0  0  0  0
    1.3380  -16.5250   32.4040 C   0  0  0  0  0  0  0  0  0  0  0  0
    0.3230  -16.2970   31.5000 N   0  0  0  0  0  0  0  0  0  0  0  0
    1.2230  -17.8210   32.7800 C   0  0  0  0  0  0  0  0  0  0  0  0
   -0.3770  -17.4060   31.3380 C   0  0  0  0  0  0  0  0  0  0  0  0
    0.1490  -18.3460   32.1030 N   0  0  0  0  0  0  0  0  0  0  0  0
    1.5530  -14.3480   35.7530 N   0  0  0  0  0  0  0  0  0  0  0  0
    0.8660  -14.5510   37.0250 C   0  0  2  0  0  0  0  0  0  0  0  0
   -0.0990  -13.4090   37.3140 C   0  0  0  0  0  0  0  0  0  0  0  0
   -1.2750  -13.6390   37.6210 O   0  0  0  0  0  0  0  0  0  0  0  0
    1.8870  -14.6940   38.1540 C   0  0  0  0  0  0  0  0  0  0  0  0
    0.3810  -12.1660   37.2150 N   0  0  0  0  0  0  0  0  0  0  0  0
   -0.4660  -11.0120   37.5050 C   0  0  2  0  0  0  0  0  0  0  0  0
   -1.6660  -10.9530   36.5670 C   0  0  0  0  0  0  0  0  0  0  0  0
   -2.7650  -10.5630   36.9780 O   0  0  0  0  0  0  0  0  0  0  0  0
    0.3570   -9.7270   37.4110 C   0  0  0  0  0  0  0  0  0  0  0  0
    1.4470   -9.5630   38.4730 C   0  0  0  0  0  0  0  0  0  0  0  0
    2.4170   -8.4550   38.0960 C   0  0  0  0  0  0  0  0  0  0  0  0
    0.8240   -9.2860   39.8320 C   0  0  0  0  0  0  0  0  0  0  0  0
   -1.4760  -11.3370   35.3030 N   0  0  0  0  0  0  0  0  0  0  0  0
   -2.5980  -11.3850   34.3720 C   0  0  2  0  0  0  0  0  0  0  0  0
   -3.5980  -12.4690   34.7510 C   0  0  0  0  0  0  0  0  0  0  0  0
   -4.8060  -12.2890   34.5600 O   0  0  0  0  0  0  0  0  0  0  0  0
   -2.0920  -11.6060   32.9460 C   0  0  0  0  0  0  0  0  0  0  0  0
   -1.7480  -10.3540   32.1390 C   0  0  0  0  0  0  0  0  0  0  0  0
   -1.0110  -10.7240   30.8640 C   0  0  0  0  0  0  0  0  0  0  0  0
   -3.0120   -9.5730   31.8170 C   0  0  0  0  0  0  0  0  0  0  0  0
   -3.1230  -13.5860   35.2880 N   0  0  0  0  0  0  0  0  0  0  0  0
   -3.9850  -14.7030   35.6780 C   0  0  2  0  0  0  0  0  0  0  0  0
   -4.3450  -14.6370   37.1570 C   0  0  0  0  0  0  0  0  0  0  0  0
   -4.2240  -15.6190   37.8900 O   0  0  0  0  0  0  0  0  0  0  0  0
   -3.3120  -16.0270   35.3380 C   0  0  0  0  0  0  0  0  0  0  0  0
   -4.7930  -13.4720   37.6150 N   0  0  0  0  0  0  0  0  0  0  0  0
   -5.2330  -13.2770   38.9890 C   0  0  2  0  0  0  0  0  0  0  0  0
   -6.7500  -13.1610   39.0220 C   0  0  0  0  0  0  0  0  0  0  0  0
   -7.3290  -12.3290   38.3160 O   0  0  0  0  0  0  0  0  0  0  0  0
   -4.5930  -12.0320   39.6060 C   0  0  0  0  0  0  0  0  0  0  0  0
   -3.3660  -12.3590   40.4360 C   0  0  0  0  0  0  0  0  0  0  0  0
   -2.6540  -13.3250   40.0930 O   0  0  0  0  0  0  0  0  0  0  0  0
   -3.1180  -11.6520   41.4360 O   0  0  0  0  0  0  0  0  0  0  0  0
   -7.3850  -13.9940   39.8400 N   0  0  0  0  0  0  0  0  0  0  0  0
   -8.8380  -13.9990   39.9560 C   0  0  2  0  0  0  0  0  0  0  0  0
   -9.2810  -13.4660   41.3140 C   0  0  0  0  0  0  0  0  0  0  0  0
   -9.5250  -12.2700   41.4740 O   0  0  0  0  0  0  0  0  0  0  0  0
   -9.3860  -15.4110   39.7380 C   0  0  0  0  0  0  0  0  0  0  0  0
  -10.7970  -15.4360   39.8670 O   0  0  0  0  0  0  0  0  0  0  0  0
  2  1  1  1
  3  2  1  0
  4  3  2  0
  5  2  1  0
  6  5  1  0
  7  6  1  0
  8  7  1  0
  9  8  1  0
 10  3  1  0
 11 10  1  6
 12 11  1  0
 13 12  2  0
 14 11  1  0
 15 14  1  0
 14 16  1  1
 17 15  1  0
 18 12  1  0
 19 18  1  0
 20 19  1  0
 21 20  2  0
 19 22  1  6
 23 22  1  0
 24 23  1  0
 25 23  1  0
 26 20  1  0
 27 26  1  0
 28 27  1  0
 29 28  2  0
 27 30  1  1
 31 30  1  0
 32 31  1  0
 33 31  2  0
 34 32  2  0
 35 34  1  0
 35 33  1  0
 36 28  1  0
 37 36  1  0
 38 37  1  0
 39 38  2  0
 37 40  1  1
 41 38  1  0
 42 41  1  0
 43 42  1  0
 44 43  2  0
 42 45  1  6
 46 45  1  0
 47 46  1  0
 48 46  1  0
 49 43  1  0
 50 49  1  0
 51 50  1  0
 52 51  2  0
 50 53  1  6
 54 53  1  0
 55 54  1  0
 56 54  1  0
 57 51  1  0
 58 57  1  0
 59 58  1  0
 60 59  2  0
 58 61  1  1
 62 59  1  0
 63 62  1  0
 64 63  1  0
 65 64  2  0
 63 66  1  6
 67 66  1  0
 68 67  2  0
 69 67  1  0
 70 64  1  0
 71 70  1  0
 72 71  1  0
 73 72  2  0
 71 74  1  1
 75 74  1  0
M  END
$$$$
8DU8
     RDKit          3D

 35 42  0  0  0  0  0  0  0  0999 V2000
   43.3620   -5.7000   15.1670 N   0  0  0  0  0  0  0  0  0  0  0  0
   43.1550   -1.4530   15.6200 C   0  0  0  0  0  0  0  0  0  0  0  0
   43.2230   -2.9600   15.5620 C   0  0  2  0  0  0  0  0  0  0  0  0
   44.2930   -3.6160   15.8380 C   0  0  1  0  0  0  0  0  0  0  0  0
   41.9830   -3.6280   15.0730 C   0  0  0  0  0  0  0  0  0  0  0  0
   42.0660   -5.0980   15.3720 C   0  0  1  0  0  0  0  0  0  0  0  0
   43.6270   -6.8510   14.3710 C   0  0  1  0  0  0  0  0  0  0  0  0
   43.9520   -5.0400   18.2150 C   0  0  0  0  0  0  0  0  0  0  0  0
   44.9100   -6.4500   19.8690 C   0  0  2  0  0  0  0  0  0  0  0  0
   45.6060   -6.7260   17.5660 C   0  0  0  0  0  0  0  0  0  0  0  0
   45.9400   -6.1310   21.9370 C   0  0  1  0  0  0  0  0  0  0  0  0
   47.0380   -6.9260   22.0380 C   0  0  0  0  0  0  0  0  0  0  0  0
   45.6230   -5.9620   23.2680 C   0  0  2  0  0  0  0  0  0  0  0  0
   47.0310   -7.2280   25.4430 C   0  0  0  0  0  0  0  0  0  0  0  0
   42.1560   -8.6370   13.4610 C   0  0  0  0  0  0  0  0  0  0  0  0
   40.8030   -8.1430   11.4820 C   0  0  0  0  0  0  0  0  0  0  0  0
   45.4900   -2.8250   16.2700 C   0  0  0  0  0  0  0  0  0  0  0  0
   42.5710   -7.4290   13.4490 C   0  0  2  0  0  0  0  0  0  0  0  0
   44.6450   -5.6150   17.2800 C   0  0  0  0  0  0  0  0  0  0  0  0
   44.0840   -5.5310   19.5990 C   0  0  0  0  0  0  0  0  0  0  0  0
   45.7430   -7.1310   18.8070 C   0  0  0  0  0  0  0  0  0  0  0  0
   40.6950   -5.7950   15.2810 C   0  0  0  0  0  0  0  0  0  0  0  0
   41.2480   -5.5290   16.6200 C   0  0  0  0  0  0  0  0  0  0  0  0
   45.4580   -1.5700   16.3590 C   0  0  0  0  0  0  0  0  0  0  0  0
   47.3220   -6.4190   24.1160 C   0  0  1  0  0  0  0  0  0  0  0  0
   48.0030   -6.8700   26.5760 C   0  0  0  0  0  0  0  0  0  0  0  0
   41.1690   -8.9740   12.3950 C   0  0  0  0  0  0  0  0  0  0  0  0
   41.3510   -6.7590   11.4220 C   0  0  0  0  0  0  0  0  0  0  0  0
   44.2280   -0.8020   16.0140 C   0  0  0  0  0  0  0  0  0  0  0  0
   42.1590   -6.4350   12.3580 C   0  0  0  0  0  0  0  0  0  0  0  0
   44.4800   -5.1210   15.8650 C   0  0  1  0  0  0  0  0  0  0  0  0
   46.6520   -6.8360   23.3690 N   0  0  2  0  0  0  0  0  0  0  0  0
   44.6540   -7.2640   14.3380 O   0  0  0  0  0  0  0  0  0  0  0  0
   44.2670    0.5340   16.1540 O   0  0  0  0  0  0  0  0  0  0  0  0
   44.9020   -6.8590   21.2300 O   0  0  0  0  0  0  0  0  0  0  0  0
  3  2  1  6
  4  3  1  0
  5  3  1  0
  6  1  1  0
  6  5  1  1
  7  1  1  0
 12 11  1  0
 13 11  1  0
  4 17  1  1
 18 15  1  6
 18  7  1  0
 19 10  1  0
 19  8  1  0
 20  9  1  0
 20  8  1  0
 21 10  1  0
 21  9  1  0
 22  6  1  0
 23 22  1  0
 23  6  1  0
 24 17  1  0
 25 14  1  1
 13 25  1  1
 26 14  1  0
 27 16  1  0
 27 15  1  0
 28 16  1  0
 29  2  1  0
 29 24  1  0
 30 28  1  0
 30 18  1  0
 31  1  1  0
 31 19  1  1
 31  4  1  0
 32 25  1  0
 32 13  1  0
 32 12  1  1
 32 11  1  0
  7 33  1  6
 34 29  1  0
  9 35  1  6
 11 35  1  6
M  CHG  1  32   1
M  END
$$$$
5DKB
     RDKit          3D

 32 35  0  0  0  0  0  0  0  0999 V2000
  -16.0960  -27.8280   -5.8170 C   0  0  0  0  0  0  0  0  0  0  0  0
  -17.4590  -27.8920   -5.2220 C   0  0  0  0  0  0  0  0  0  0  0  0
  -18.4140  -26.8070   -5.6110 C   0  0  2  0  0  0  0  0  0  0  0  0
  -18.9980  -25.9590   -4.6730 C   0  0  2  0  0  0  0  0  0  0  0  0
  -20.3520  -25.3800   -4.9360 C   0  0  0  0  0  0  0  0  0  0  0  0
  -20.5040  -24.0080   -5.0790 C   0  0  0  0  0  0  0  0  0  0  0  0
  -21.7610  -23.4670   -5.3220 C   0  0  0  0  0  0  0  0  0  0  0  0
  -22.8660  -24.3030   -5.4260 C   0  0  0  0  0  0  0  0  0  0  0  0
  -24.1090  -23.7700   -5.6710 O   0  0  0  0  0  0  0  0  0  0  0  0
  -22.7180  -25.6760   -5.2850 C   0  0  0  0  0  0  0  0  0  0  0  0
  -21.4640  -26.2130   -5.0370 C   0  0  0  0  0  0  0  0  0  0  0  0
  -18.2770  -25.4790   -3.4360 C   0  0  0  0  0  0  0  0  0  0  0  0
  -16.9210  -25.1640   -3.4690 C   0  0  0  0  0  0  0  0  0  0  0  0
  -16.2680  -24.7240   -2.3250 C   0  0  0  0  0  0  0  0  0  0  0  0
  -16.9730  -24.5790   -1.1380 C   0  0  0  0  0  0  0  0  0  0  0  0
  -16.3240  -24.1370   -0.0050 O   0  0  0  0  0  0  0  0  0  0  0  0
  -18.3280  -24.8810   -1.0970 C   0  0  0  0  0  0  0  0  0  0  0  0
  -18.9770  -25.3280   -2.2440 C   0  0  0  0  0  0  0  0  0  0  0  0
  -19.0170  -27.0060   -6.9760 C   0  0  0  0  0  0  0  0  0  0  0  0
  -19.1610  -25.9670   -7.8930 C   0  0  0  0  0  0  0  0  0  0  0  0
  -19.7230  -26.2250   -9.1430 C   0  0  0  0  0  0  0  0  0  0  0  0
  -20.1300  -27.5140   -9.4830 C   0  0  0  0  0  0  0  0  0  0  0  0
  -19.9770  -28.5490   -8.5670 C   0  0  0  0  0  0  0  0  0  0  0  0
  -20.3700  -29.8990   -8.8570 N   0  0  0  0  0  0  0  0  0  0  0  0
  -20.9770  -30.3120  -10.0940 C   0  0  0  0  0  0  0  0  0  0  0  0
  -22.3380  -30.1660  -10.3020 C   0  0  0  0  0  0  0  0  0  0  0  0
  -22.9010  -30.5850  -11.5010 C   0  0  0  0  0  0  0  0  0  0  0  0
  -22.1160  -31.1460  -12.4910 C   0  0  0  0  0  0  0  0  0  0  0  0
  -20.7540  -31.2950  -12.2810 C   0  0  0  0  0  0  0  0  0  0  0  0
  -19.9050  -31.8990  -13.3470 C   0  0  0  0  0  0  0  0  0  0  0  0
  -20.1860  -30.8820  -11.0830 C   0  0  0  0  0  0  0  0  0  0  0  0
  -19.4170  -28.2880   -7.3210 C   0  0  0  0  0  0  0  0  0  0  0  0
  2  1  1  0
  3  2  1  1
  4  3  1  0
  4  5  1  6
  6  5  1  0
  7  6  1  0
  8  7  1  0
  9  8  1  0
 10  8  1  0
 11 10  1  0
 11  5  1  0
 12  4  1  0
 13 12  1  0
 14 13  1  0
 15 14  1  0
 16 15  1  0
 17 15  1  0
 18 17  1  0
 18 12  1  0
 19  3  1  0
 20 19  1  0
 21 20  1  0
 22 21  1  0
 23 22  1  0
 24 23  1  0
 25 24  1  0
 26 25  1  0
 27 26  1  0
 28 27  1  0
 29 28  1  0
 30 29  1  0
 31 29  1  0
 31 25  1  0
 32 23  1  0
 32 19  1  0
M  END
$$$$
8AI0
     RDKit          3D

 76 77  0  0  0  0  0  0  0  0999 V2000
  -12.8420   -8.0720   14.7700 N   0  0  0  0  0  0  0  0  0  0  0  0
  -13.8350   -9.0490   14.3400 C   0  0  2  0  0  0  0  0  0  0  0  0
  -13.1690  -10.2940   13.7540 C   0  0  0  0  0  0  0  0  0  0  0  0
  -12.3360  -10.1790   12.8520 O   0  0  0  0  0  0  0  0  0  0  0  0
  -14.7610   -8.4300   13.3020 C   0  0  0  0  0  0  0  0  0  0  0  0
  -15.2470   -7.0610   13.6630 C   0  0  0  0  0  0  0  0  0  0  0  0
  -15.7980   -6.8110   14.9160 C   0  0  0  0  0  0  0  0  0  0  0  0
  -15.1760   -6.0230   12.7420 C   0  0  0  0  0  0  0  0  0  0  0  0
  -16.2760   -5.5400   15.2470 C   0  0  0  0  0  0  0  0  0  0  0  0
  -15.6410   -4.7500   13.0650 C   0  0  0  0  0  0  0  0  0  0  0  0
  -16.1950   -4.5110   14.3200 C   0  0  0  0  0  0  0  0  0  0  0  0
  -14.3610   -9.3220   15.1080 H   0  0  0  0  0  0  0  0  0  0  0  0
  -14.2850   -8.3620   12.4600 H   0  0  0  0  0  0  0  0  0  0  0  0
  -15.5380   -9.0010   13.1980 H   0  0  0  0  0  0  0  0  0  0  0  0
  -15.8490   -7.4980   15.5410 H   0  0  0  0  0  0  0  0  0  0  0  0
  -14.8140   -6.1790   11.9000 H   0  0  0  0  0  0  0  0  0  0  0  0
  -16.6470   -5.3850   16.0850 H   0  0  0  0  0  0  0  0  0  0  0  0
  -15.5820   -4.0610   12.4440 H   0  0  0  0  0  0  0  0  0  0  0  0
  -16.5100   -3.6630   14.5370 H   0  0  0  0  0  0  0  0  0  0  0  0
  -13.5320  -11.4760   14.2520 N   0  0  0  0  0  0  0  0  0  0  0  0
  -12.9580  -12.7050   13.6960 C   0  0  2  0  0  0  0  0  0  0  0  0
  -13.5560  -13.0480   12.3370 C   0  0  0  0  0  0  0  0  0  0  0  0
  -14.6340  -12.6040   11.9450 O   0  0  0  0  0  0  0  0  0  0  0  0
  -13.2950  -13.7620   14.7540 C   0  0  0  0  0  0  0  0  0  0  0  0
  -14.5620  -13.2590   15.3930 C   0  0  0  0  0  0  0  0  0  0  0  0
  -14.4480  -11.7570   15.3820 C   0  0  0  0  0  0  0  0  0  0  0  0
  -11.9950  -12.6310   13.6080 H   0  0  0  0  0  0  0  0  0  0  0  0
  -13.4350  -14.6240   14.3300 H   0  0  0  0  0  0  0  0  0  0  0  0
  -12.5760  -13.8240   15.4020 H   0  0  0  0  0  0  0  0  0  0  0  0
  -15.3300  -13.5500   14.8770 H   0  0  0  0  0  0  0  0  0  0  0  0
  -14.6270  -13.5930   16.3010 H   0  0  0  0  0  0  0  0  0  0  0  0
  -15.3150  -11.3490   15.2300 H   0  0  0  0  0  0  0  0  0  0  0  0
  -14.0710  -11.4350   16.2160 H   0  0  0  0  0  0  0  0  0  0  0  0
  -12.8170  -13.8800   11.5990 N   0  0  0  0  0  0  0  0  0  0  0  0
  -13.2130  -14.2570   10.2700 C   0  0  2  0  0  0  0  0  0  0  0  0
  -14.3110  -15.3110   10.2640 C   0  0  0  0  0  0  0  0  0  0  0  0
  -14.2390  -16.2930   11.0030 O   0  0  0  0  0  0  0  0  0  0  0  0
  -12.0140  -14.7820    9.4790 C   0  0  0  0  0  0  0  0  0  0  0  0
  -12.0790  -14.2350   11.8600 H   0  0  0  0  0  0  0  0  0  0  0  0
  -13.5600  -13.4600    9.8380 H   0  0  0  0  0  0  0  0  0  0  0  0
  -11.3420  -14.0850    9.4240 H   0  0  0  0  0  0  0  0  0  0  0  0
  -11.6500  -15.5570    9.9340 H   0  0  0  0  0  0  0  0  0  0  0  0
  -12.3070  -15.0290    8.5880 H   0  0  0  0  0  0  0  0  0  0  0  0
  -15.3140  -15.0830    9.4280 N   0  0  0  0  0  0  0  0  0  0  0  0
  -16.3850  -16.0370    9.1460 C   0  0  1  0  0  0  0  0  0  0  0  0
  -17.6920  -15.6780    9.9140 C   0  0  1  0  0  0  0  0  0  0  0  0
  -17.4930  -15.8580   11.4160 C   0  0  2  0  0  0  0  0  0  0  0  0
  -17.9560  -14.3130    9.5510 O   0  0  0  0  0  0  0  0  0  0  0  0
  -19.4390  -13.7420    9.9320 P   0  0  0  0  0  0  0  0  0  0  0  0
  -19.4990  -12.4410    8.9970 O   0  0  0  0  0  0  0  0  0  0  0  0
  -19.4190  -13.3380   11.3670 O   0  0  0  0  0  0  0  0  0  0  0  0
  -20.5310  -14.7930    9.5750 O   0  0  0  0  0  0  0  0  0  0  0  0
  -16.6180  -16.0290    7.6430 C   0  0  0  0  0  0  0  0  0  0  0  0
  -16.2720  -15.0390    6.9580 O   0  0  0  0  0  0  0  0  0  0  0  0
  -16.1390  -16.9340    9.4540 H   0  0  0  0  0  0  0  0  0  0  0  0
  -18.5330  -16.3210    9.6570 H   0  0  0  0  0  0  0  0  0  0  0  0
  -17.2000  -16.8870   11.6230 H   0  0  0  0  0  0  0  0  0  0  0  0
  -18.4250  -15.6350   11.9360 H   0  0  0  0  0  0  0  0  0  0  0  0
  -16.7130  -15.1810   11.7640 H   0  0  0  0  0  0  0  0  0  0  0  0
  -17.1630  -17.1200    7.1290 N   0  0  0  0  0  0  0  0  0  0  0  0
  -17.5150  -17.2030    5.7120 C   0  0  2  0  0  0  0  0  0  0  0  0
  -18.9630  -17.5350    5.4220 C   0  0  0  0  0  0  0  0  0  0  0  0
  -19.7360  -17.9860    6.2740 O   0  0  0  0  0  0  0  0  0  0  0  0
  -16.6170  -18.2510    4.9820 C   0  0  0  0  0  0  0  0  0  0  0  0
  -15.1740  -17.8390    5.0690 C   0  0  0  0  0  0  0  0  0  0  0  0
  -16.8550  -19.6380    5.5440 C   0  0  0  0  0  0  0  0  0  0  0  0
  -19.3930  -17.3560    4.2610 O   0  0  0  0  0  0  0  0  0  0  0  0
  -17.3430  -17.8310    7.5780 H   0  0  0  0  0  0  0  0  0  0  0  0
  -17.3700  -16.3060    5.3710 H   0  0  0  0  0  0  0  0  0  0  0  0
  -16.8510  -18.2870    4.0410 H   0  0  0  0  0  0  0  0  0  0  0  0
  -15.1180  -16.9750    5.5080 H   0  0  0  0  0  0  0  0  0  0  0  0
  -14.6860  -18.5020    5.5830 H   0  0  0  0  0  0  0  0  0  0  0  0
  -14.8070  -17.7790    4.1730 H   0  0  0  0  0  0  0  0  0  0  0  0
  -16.2100  -20.2500    5.1560 H   0  0  0  0  0  0  0  0  0  0  0  0
  -16.7470  -19.6110    6.5070 H   0  0  0  0  0  0  0  0  0  0  0  0
  -17.7550  -19.9190    5.3190 H   0  0  0  0  0  0  0  0  0  0  0  0
  2  1  1  0
  3  2  1  0
  4  3  2  0
  5  2  1  0
  6  5  1  0
  7  6  2  0
  8  6  1  0
  9  7  1  0
 10  8  2  0
 11  9  2  0
 11 10  1  0
  2 12  1  1
 13  5  1  0
 14  5  1  0
 15  7  1  0
 16  8  1  0
 17  9  1  0
 18 10  1  0
 19 11  1  0
 20  3  1  0
 21 20  1  0
 22 21  1  0
 23 22  2  0
 24 21  1  0
 25 24  1  0
 26 25  1  0
 26 20  1  0
 21 27  1  6
 28 24  1  0
 29 24  1  0
 30 25  1  0
 31 25  1  0
 32 26  1  0
 33 26  1  0
 34 22  1  0
 35 34  1  0
 36 35  1  0
 37 36  2  0
 38 35  1  0
 39 34  1  0
 35 40  1  6
 41 38  1  0
 42 38  1  0
 43 38  1  0
 44 36  1  0
 45 44  1  0
 46 45  1  0
 47 46  1  0
 48 46  1  0
 49 48  1  0
 50 49  1  0
 51 49  1  0
 52 49  1  0
 53 45  1  0
 54 53  1  0
 45 55  1  1
 46 56  1  6
 47 57  1  6
 58 47  1  0
 59 47  1  0
 60 53  1  0
 61 60  1  0
 62 61  1  0
 63 62  2  0
 64 61  1  0
 65 64  1  0
 66 64  1  0
 67 62  1  0
 68 60  1  0
 61 69  1  6
 70 64  1  0
 71 65  1  0
 72 65  1  0
 73 65  1  0
 74 66  1  0
 75 66  1  0
 76 66  1  0
M  END
$$$$
5TN3
     RDKit          3D

 20 23  0  0  0  0  0  0  0  0999 V2000
   18.3450   -1.1920    0.5420 C   0  0  0  0  0  0  0  0  0  0  0  0
   17.0290   -1.1090    0.4980 C   0  0  0  0  0  0  0  0  0  0  0  0
   16.3680   -1.4610    1.5680 C   0  0  0  0  0  0  0  0  0  0  0  0
   16.9900   -1.8540    2.6590 C   0  0  0  0  0  0  0  0  0  0  0  0
   18.3000   -1.9210    2.7180 C   0  0  2  0  0  0  0  0  0  0  0  0
   18.9540   -1.5970    1.6270 C   0  0  0  0  0  0  0  0  0  0  0  0
   16.1460   -2.2210    3.8320 C   0  0  0  0  0  0  0  0  0  0  0  0
   16.7750   -3.3650    4.6240 C   0  0  0  0  0  0  0  0  0  0  0  0
   18.0670   -2.7840    5.1200 C   0  0  2  0  0  0  0  0  0  0  0  0
   18.9900   -2.4200    3.9670 C   0  0  2  0  0  0  0  0  0  0  0  0
   18.8800   -3.7700    5.8920 C   0  0  1  0  0  0  0  0  0  0  0  0
   19.8260   -2.9730    6.7830 C   0  0  2  0  0  0  0  0  0  0  0  0
   20.7080   -2.0560    5.9080 C   0  0  0  0  0  0  0  0  0  0  0  0
   20.1240   -1.5740    4.5680 C   0  0  0  0  0  0  0  0  0  0  0  0
   18.2110   -4.7980    6.7720 C   0  0  0  0  0  0  0  0  0  0  0  0
   19.2630   -4.9970    7.8640 C   0  0  0  0  0  0  0  0  0  0  0  0
   20.4770   -4.1700    7.4420 C   0  0  2  0  0  0  0  0  0  0  0  0
   16.3940   -0.6850   -0.5940 O   0  0  0  0  0  0  0  0  0  0  0  0
   21.2770   -3.8360    8.5910 N   0  0  0  0  0  0  0  0  0  0  0  0
   19.1570   -2.1500    7.8740 C   0  0  0  0  0  0  0  0  0  0  0  0
  2  1  1  0
  3  2  1  0
  4  3  1  0
  5  4  1  0
  5  6  1  6
  6  1  1  0
  7  4  1  0
  8  7  1  0
  9  8  1  6
 10  9  1  0
 10  5  1  0
 11  9  1  0
 12 11  1  0
 13 12  1  0
 10 14  1  1
 14 13  1  0
 11 15  1  1
 16 15  1  0
 17 16  1  0
 17 12  1  0
 18  2  1  0
 17 19  1  1
 12 20  1  1
M  END
$$$$
5TLM
     RDKit          3D

 57 56  0  0  0  0  0  0  0  0999 V2000
   -9.1220   -1.3770    7.2950 N   0  0  0  0  0  0  0  0  0  0  0  0
   -9.0800    0.0800    7.1850 C   0  0  2  0  0  0  0  0  0  0  0  0
  -10.0790    0.7490    8.1240 C   0  0  0  0  0  0  0  0  0  0  0  0
  -11.2260    0.3170    8.2390 O   0  0  0  0  0  0  0  0  0  0  0  0
   -9.3540    0.5200    5.7460 C   0  0  0  0  0  0  0  0  0  0  0  0
   -9.6330    1.8170    8.7910 N   0  0  0  0  0  0  0  0  0  0  0  0
  -10.5230    2.5670    9.6720 C   0  0  2  0  0  0  0  0  0  0  0  0
  -11.6840    3.1600    8.8870 C   0  0  0  0  0  0  0  0  0  0  0  0
  -12.8040    3.2680    9.4030 O   0  0  0  0  0  0  0  0  0  0  0  0
   -9.7330    3.6560   10.4220 C   0  0  0  0  0  0  0  0  0  0  0  0
  -11.4460    3.5420    7.6300 N   0  0  0  0  0  0  0  0  0  0  0  0
  -12.5070    4.1180    6.8090 C   0  0  2  0  0  0  0  0  0  0  0  0
  -13.5970    3.0980    6.5010 C   0  0  0  0  0  0  0  0  0  0  0  0
  -14.7830    3.4470    6.4460 O   0  0  0  0  0  0  0  0  0  0  0  0
  -11.9190    4.6780    5.5140 C   0  0  0  0  0  0  0  0  0  0  0  0
  -12.9120    5.1420    4.4480 C   0  0  0  0  0  0  0  0  0  0  0  0
  -13.8210    6.2260    4.9930 C   0  0  0  0  0  0  0  0  0  0  0  0
  -12.1760    5.6320    3.2140 C   0  0  0  0  0  0  0  0  0  0  0  0
  -13.2210    1.8350    6.2890 N   0  0  0  0  0  0  0  0  0  0  0  0
  -14.2210    0.8250    5.9620 C   0  0  2  0  0  0  0  0  0  0  0  0
  -15.1610    0.5690    7.1320 C   0  0  0  0  0  0  0  0  0  0  0  0
  -16.3540    0.3160    6.9240 O   0  0  0  0  0  0  0  0  0  0  0  0
  -13.5350   -0.4730    5.5340 C   0  0  0  0  0  0  0  0  0  0  0  0
  -14.6520    0.6490    8.3630 N   0  0  0  0  0  0  0  0  0  0  0  0
  -15.4720    0.3530    9.5310 C   0  0  2  0  0  0  0  0  0  0  0  0
  -16.4620    1.4730    9.8260 C   0  0  0  0  0  0  0  0  0  0  0  0
  -17.6190    1.2030   10.1650 O   0  0  0  0  0  0  0  0  0  0  0  0
  -14.5800    0.0950   10.7470 C   0  0  0  0  0  0  0  0  0  0  0  0
  -16.0310    2.7330    9.7040 N   0  0  0  0  0  0  0  0  0  0  0  0
  -16.9160    3.8480   10.0280 C   0  0  2  0  0  0  0  0  0  0  0  0
  -18.1210    3.8980    9.1000 C   0  0  0  0  0  0  0  0  0  0  0  0
  -19.2170    4.2850    9.5240 O   0  0  0  0  0  0  0  0  0  0  0  0
  -16.1440    5.1640    9.9690 C   0  0  0  0  0  0  0  0  0  0  0  0
  -14.9330    5.2380   10.8970 C   0  0  0  0  0  0  0  0  0  0  0  0
  -14.3180    6.6290   10.8770 C   0  0  0  0  0  0  0  0  0  0  0  0
  -15.3160    4.8350   12.3130 C   0  0  0  0  0  0  0  0  0  0  0  0
  -17.9420    3.5180    7.8370 N   0  0  0  0  0  0  0  0  0  0  0  0
  -19.0740    3.4180    6.9290 C   0  0  2  0  0  0  0  0  0  0  0  0
  -19.9880    2.2520    7.2800 C   0  0  0  0  0  0  0  0  0  0  0  0
  -21.1720    2.2840    6.9310 O   0  0  0  0  0  0  0  0  0  0  0  0
  -18.5760    3.2870    5.4910 C   0  0  0  0  0  0  0  0  0  0  0  0
  -17.7920    4.4850    4.9580 C   0  0  0  0  0  0  0  0  0  0  0  0
  -16.8610    4.0470    3.8460 C   0  0  0  0  0  0  0  0  0  0  0  0
  -18.7380    5.5660    4.4600 C   0  0  0  0  0  0  0  0  0  0  0  0
  -19.4710    1.2340    7.9670 N   0  0  0  0  0  0  0  0  0  0  0  0
  -20.2570    0.0720    8.3600 C   0  0  2  0  0  0  0  0  0  0  0  0
  -20.9290    0.2340    9.7190 C   0  0  0  0  0  0  0  0  0  0  0  0
  -21.5310   -0.7250   10.2130 O   0  0  0  0  0  0  0  0  0  0  0  0
  -19.3730   -1.1800    8.3700 C   0  0  0  0  0  0  0  0  0  0  0  0
  -20.8440    1.4130   10.3320 N   0  0  0  0  0  0  0  0  0  0  0  0
  -21.4670    1.6540   11.6330 C   0  0  2  0  0  0  0  0  0  0  0  0
  -22.6470    2.6140   11.5090 C   0  0  0  0  0  0  0  0  0  0  0  0
  -23.8060    2.2000   11.5460 O   0  0  0  0  0  0  0  0  0  0  0  0
  -20.4460    2.2130   12.6300 C   0  0  0  0  0  0  0  0  0  0  0  0
  -19.3070    1.2480   12.9100 C   0  0  0  0  0  0  0  0  0  0  0  0
  -19.5000    0.0240   12.7470 O   0  0  0  0  0  0  0  0  0  0  0  0
  -18.2160    1.7170   13.3020 O   0  0  0  0  0  0  0  0  0  0  0  0
  2  1  1  0
  3  2  1  0
  4  3  2  0
  2  5  1  6
  6  3  1  0
  7  6  1  0
  8  7  1  0
  9  8  2  0
  7 10  1  6
 11  8  1  0
 12 11  1  0
 13 12  1  0
 14 13  2  0
 12 15  1  6
 16 15  1  0
 17 16  1  0
 18 16  1  0
 19 13  1  0
 20 19  1  0
 21 20  1  0
 22 21  2  0
 20 23  1  1
 24 21  1  0
 25 24  1  0
 26 25  1  0
 27 26  2  0
 25 28  1  1
 29 26  1  0
 30 29  1  0
 31 30  1  0
 32 31  2  0
 30 33  1  6
 34 33  1  0
 35 34  1  0
 36 34  1  0
 37 31  1  0
 38 37  1  0
 39 38  1  0
 40 39  2  0
 38 41  1  6
 42 41  1  0
 43 42  1  0
 44 42  1  0
 45 39  1  0
 46 45  1  0
 47 46  1  0
 48 47  2  0
 46 49  1  1
 50 47  1  0
 51 50  1  0
 52 51  1  0
 53 52  2  0
 51 54  1  1
 55 54  1  0
 56 55  2  0
 57 55  1  0
M  END
$$$$
6HMU
     RDKit          3D

 42 43  0  0  0  0  0  0  0  0999 V2000
   12.9330    7.9880   14.6460 N   0  0  0  0  0  0  0  0  0  0  0  0
   13.7760    9.1800   14.6450 C   0  0  2  0  0  0  0  0  0  0  0  0
   13.0550   10.3860   14.0430 C   0  0  0  0  0  0  0  0  0  0  0  0
   12.2010   10.2340   13.1690 O   0  0  0  0  0  0  0  0  0  0  0  0
   15.1020    8.9140   13.9140 C   0  0  0  0  0  0  0  0  0  0  0  0
   14.9420    8.3230   12.5380 C   0  0  0  0  0  0  0  0  0  0  0  0
   14.7820    9.1370   11.4250 C   0  0  0  0  0  0  0  0  0  0  0  0
   14.9730    6.9470   12.3550 C   0  0  0  0  0  0  0  0  0  0  0  0
   14.6410    8.5890   10.1580 C   0  0  0  0  0  0  0  0  0  0  0  0
   14.8330    6.3940   11.0900 C   0  0  0  0  0  0  0  0  0  0  0  0
   14.6680    7.2160    9.9910 C   0  0  0  0  0  0  0  0  0  0  0  0
   13.3900   11.5830   14.5190 N   0  0  0  0  0  0  0  0  0  0  0  0
   12.7830   12.7900   13.9540 C   0  0  2  0  0  0  0  0  0  0  0  0
   13.3720   13.1070   12.5880 C   0  0  0  0  0  0  0  0  0  0  0  0
   14.4330   12.6140   12.1970 O   0  0  0  0  0  0  0  0  0  0  0  0
   13.1480   13.8690   14.9760 C   0  0  0  0  0  0  0  0  0  0  0  0
   14.4580   13.4010   15.5370 C   0  0  0  0  0  0  0  0  0  0  0  0
   14.3330   11.8980   15.6100 C   0  0  0  0  0  0  0  0  0  0  0  0
   12.6560   13.9530   11.8540 N   0  0  0  0  0  0  0  0  0  0  0  0
   13.0530   14.3160   10.5040 C   0  0  2  0  0  0  0  0  0  0  0  0
   14.1850   15.3410   10.4770 C   0  0  0  0  0  0  0  0  0  0  0  0
   14.1530   16.3200   11.2230 O   0  0  0  0  0  0  0  0  0  0  0  0
   11.8510   14.8460    9.7320 C   0  0  0  0  0  0  0  0  0  0  0  0
   15.1770   15.0940    9.6210 N   0  0  0  0  0  0  0  0  0  0  0  0
   16.2470   16.0420    9.3140 C   0  0  1  0  0  0  0  0  0  0  0  0
   17.5610   15.6770   10.0410 C   0  0  1  0  0  0  0  0  0  0  0  0
   17.4400   15.8660   11.5520 C   0  0  0  0  0  0  0  0  0  0  0  0
   17.8490   14.3100    9.7020 O   0  0  0  0  0  0  0  0  0  0  0  0
   19.3130   13.7170   10.0650 P   0  0  0  0  0  0  0  0  0  0  0  0
   19.4610   12.4460    9.1190 O   0  0  0  0  0  0  0  0  0  0  0  0
   19.3670   13.3400   11.4890 O   0  0  0  0  0  0  0  0  0  0  0  0
   20.4160   14.8070    9.7290 O   0  0  0  0  0  0  0  0  0  0  0  0
   16.4610   16.0250    7.8080 C   0  0  0  0  0  0  0  0  0  0  0  0
   16.0830   15.0530    7.1350 O   0  0  0  0  0  0  0  0  0  0  0  0
   17.0450   17.0910    7.2680 N   0  0  0  0  0  0  0  0  0  0  0  0
   17.3330   17.1770    5.8360 C   0  0  2  0  0  0  0  0  0  0  0  0
   18.7730   17.5650    5.5570 C   0  0  0  0  0  0  0  0  0  0  0  0
   19.5090   18.0270    6.4350 O   0  0  0  0  0  0  0  0  0  0  0  0
   16.3880   18.1440    5.0930 C   0  0  0  0  0  0  0  0  0  0  0  0
   14.9770   17.6590    5.1510 C   0  0  0  0  0  0  0  0  0  0  0  0
   16.4940   19.5400    5.6760 C   0  0  0  0  0  0  0  0  0  0  0  0
   19.2280   17.4350    4.4190 O   0  0  0  0  0  0  0  0  0  0  0  0
  2  1  1  6
  3  2  1  0
  4  3  2  0
  5  2  1  0
  6  5  1  0
  7  6  2  0
  8  6  1  0
  9  7  1  0
 10  8  2  0
 11  9  2  0
 11 10  1  0
 12  3  1  0
 13 12  1  0
 13 14  1  6
 15 14  2  0
 16 13  1  0
 17 16  1  0
 18 17  1  0
 18 12  1  0
 19 14  1  0
 20 19  1  0
 21 20  1  0
 22 21  2  0
 20 23  1  1
 24 21  1  0
 25 24  1  6
 26 25  1  0
 26 27  1  1
 28 26  1  0
 29 28  1  0
 30 29  1  0
 31 29  1  0
 32 29  1  0
 33 25  1  0
 34 33  1  0
 35 33  1  0
 36 35  1  1
 37 36  1  0
 38 37  2  0
 39 36  1  0
 40 39  1  0
 41 39  1  0
 42 37  1  0
M  END
$$$$
9I6X
     RDKit          3D

 42 43  0  0  0  0  0  0  0  0999 V2000
   12.7640    8.2010   14.7170 N   0  0  0  0  0  0  0  0  0  0  0  0
   13.7010    9.3210   14.6860 C   0  0  2  0  0  0  0  0  0  0  0  0
   13.0480   10.5410   14.0450 C   0  0  0  0  0  0  0  0  0  0  0  0
   12.1700   10.4270   13.1740 O   0  0  0  0  0  0  0  0  0  0  0  0
   14.9770    8.8930   13.9570 C   0  0  0  0  0  0  0  0  0  0  0  0
   15.7680    7.8870   14.7580 C   0  0  0  0  0  0  0  0  0  0  0  0
   16.5560    8.2870   15.8320 C   0  0  0  0  0  0  0  0  0  0  0  0
   15.6960    6.5300   14.4660 C   0  0  0  0  0  0  0  0  0  0  0  0
   17.2700    7.3500   16.5780 C   0  0  0  0  0  0  0  0  0  0  0  0
   16.4200    5.5980   15.2110 C   0  0  0  0  0  0  0  0  0  0  0  0
   17.1930    6.0130   16.2660 C   0  0  0  0  0  0  0  0  0  0  0  0
   13.4260   11.7680   14.4780 N   0  0  0  0  0  0  0  0  0  0  0  0
   12.8560   12.9670   13.8770 C   0  0  2  0  0  0  0  0  0  0  0  0
   13.4310   13.2610   12.4890 C   0  0  0  0  0  0  0  0  0  0  0  0
   14.4890   12.7530   12.1200 O   0  0  0  0  0  0  0  0  0  0  0  0
   13.2260   14.0180   14.8890 C   0  0  0  0  0  0  0  0  0  0  0  0
   14.5430   13.5460   15.4220 C   0  0  0  0  0  0  0  0  0  0  0  0
   14.4370   12.0590   15.5180 C   0  0  0  0  0  0  0  0  0  0  0  0
   12.7230   14.0820   11.7320 N   0  0  0  0  0  0  0  0  0  0  0  0
   13.1140   14.4520   10.3860 C   0  0  2  0  0  0  0  0  0  0  0  0
   14.2550   15.4740   10.3880 C   0  0  0  0  0  0  0  0  0  0  0  0
   14.1920   16.4820   11.0900 O   0  0  0  0  0  0  0  0  0  0  0  0
   11.9320   15.0390    9.6540 C   0  0  0  0  0  0  0  0  0  0  0  0
   15.2360   15.2280    9.5010 N   0  0  0  0  0  0  0  0  0  0  0  0
   16.3060   16.1510    9.1630 C   0  0  1  0  0  0  0  0  0  0  0  0
   17.6140   15.8370    9.9040 C   0  0  1  0  0  0  0  0  0  0  0  0
   17.4890   16.0040   11.4000 C   0  0  0  0  0  0  0  0  0  0  0  0
   17.9530   14.4520    9.5600 O   0  0  0  0  0  0  0  0  0  0  0  0
   19.3850   13.7860    9.9060 P   0  0  0  0  0  0  0  0  0  0  0  0
   19.4200   13.4290   11.3660 O   0  0  0  0  0  0  0  0  0  0  0  0
   19.4380   12.5870    8.9960 O   0  0  0  0  0  0  0  0  0  0  0  0
   20.4410   14.8280    9.6110 O   0  0  0  0  0  0  0  0  0  0  0  0
   16.4770   16.1390    7.6490 C   0  0  0  0  0  0  0  0  0  0  0  0
   16.0930   15.1790    6.9890 O   0  0  0  0  0  0  0  0  0  0  0  0
   17.0830   17.2010    7.1250 N   0  0  0  0  0  0  0  0  0  0  0  0
   17.3860   17.2920    5.7020 C   0  0  2  0  0  0  0  0  0  0  0  0
   18.8240   17.5150    5.4090 C   0  0  0  0  0  0  0  0  0  0  0  0
   19.5970   17.9440    6.2730 O   0  0  0  0  0  0  0  0  0  0  0  0
   16.5520   18.3670    4.9970 C   0  0  0  0  0  0  0  0  0  0  0  0
   15.0850   18.0050    5.1030 C   0  0  0  0  0  0  0  0  0  0  0  0
   16.8420   19.7600    5.5690 C   0  0  0  0  0  0  0  0  0  0  0  0
   19.2200   17.2690    4.2460 O   0  0  0  0  0  0  0  0  0  0  0  0
  2  1  1  6
  3  2  1  0
  4  3  2  0
  5  2  1  0
  6  5  1  0
  7  6  2  0
  8  6  1  0
  9  7  1  0
 10  8  2  0
 11 10  1  0
 11  9  2  0
 12  3  1  0
 13 12  1  0
 13 14  1  6
 15 14  2  0
 16 13  1  0
 17 16  1  0
 18 17  1  0
 18 12  1  0
 19 14  1  0
 20 19  1  0
 21 20  1  0
 22 21  2  0
 20 23  1  1
 24 21  1  0
 25 24  1  6
 26 25  1  0
 26 27  1  1
 28 26  1  0
 29 28  1  0
 30 29  1  0
 31 29  1  0
 32 29  1  0
 33 25  1  0
 34 33  1  0
 35 33  1  0
 36 35  1  1
 37 36  1  0
 38 37  2  0
 39 36  1  0
 40 39  1  0
 41 39  1  0
 42 37  1  0
M  END
$$$$
8APS
     RDKit          3D

 42 43  0  0  0  0  0  0  0  0999 V2000
  -12.9530    8.0150  -14.5700 N   0  0  0  0  0  0  0  0  0  0  0  0
  -13.8650    9.1900  -14.5930 C   0  0  2  0  0  0  0  0  0  0  0  0
  -13.1780   10.3970  -13.9700 C   0  0  0  0  0  0  0  0  0  0  0  0
  -12.3020   10.2580  -13.1160 O   0  0  0  0  0  0  0  0  0  0  0  0
  -15.1740    8.9130  -13.8460 C   0  0  0  0  0  0  0  0  0  0  0  0
  -14.9980    8.2460  -12.5110 C   0  0  0  0  0  0  0  0  0  0  0  0
  -14.8120    8.9990  -11.3540 C   0  0  0  0  0  0  0  0  0  0  0  0
  -15.0410    6.8600  -12.4030 C   0  0  0  0  0  0  0  0  0  0  0  0
  -14.6560    8.3770  -10.1200 C   0  0  0  0  0  0  0  0  0  0  0  0
  -14.8810    6.2330  -11.1750 C   0  0  0  0  0  0  0  0  0  0  0  0
  -14.6920    6.9920  -10.0310 C   0  0  0  0  0  0  0  0  0  0  0  0
  -13.5540   11.6250  -14.3770 N   0  0  0  0  0  0  0  0  0  0  0  0
  -12.9730   12.8210  -13.7780 C   0  0  2  0  0  0  0  0  0  0  0  0
  -13.5750   13.1370  -12.3990 C   0  0  0  0  0  0  0  0  0  0  0  0
  -14.6590   12.6670  -12.0710 O   0  0  0  0  0  0  0  0  0  0  0  0
  -13.3000   13.8800  -14.8300 C   0  0  0  0  0  0  0  0  0  0  0  0
  -14.6470   13.4380  -15.3650 C   0  0  0  0  0  0  0  0  0  0  0  0
  -14.5430   11.9290  -15.4260 C   0  0  0  0  0  0  0  0  0  0  0  0
  -12.8650   13.9570  -11.6330 N   0  0  0  0  0  0  0  0  0  0  0  0
  -13.2920   14.3450  -10.3070 C   0  0  2  0  0  0  0  0  0  0  0  0
  -14.4110   15.3750  -10.3100 C   0  0  0  0  0  0  0  0  0  0  0  0
  -14.3390   16.3760  -11.0310 O   0  0  0  0  0  0  0  0  0  0  0  0
  -12.1130   14.9190   -9.5480 C   0  0  0  0  0  0  0  0  0  0  0  0
  -15.4030   15.1400   -9.4500 N   0  0  0  0  0  0  0  0  0  0  0  0
  -16.4850   16.0850   -9.1150 C   0  0  1  0  0  0  0  0  0  0  0  0
  -17.7830   15.7700   -9.8710 C   0  0  1  0  0  0  0  0  0  0  0  0
  -17.6290   15.9280  -11.3720 C   0  0  0  0  0  0  0  0  0  0  0  0
  -18.1040   14.3700   -9.5460 O   0  0  0  0  0  0  0  0  0  0  0  0
  -19.5180   13.7020   -9.9330 P   0  0  0  0  0  0  0  0  0  0  0  0
  -19.5270   13.3810  -11.3970 O   0  0  0  0  0  0  0  0  0  0  0  0
  -19.5340   12.4570   -9.0660 O   0  0  0  0  0  0  0  0  0  0  0  0
  -20.5960   14.7060   -9.6020 O   0  0  0  0  0  0  0  0  0  0  0  0
  -16.6780   16.0810   -7.6000 C   0  0  0  0  0  0  0  0  0  0  0  0
  -16.3020   15.0980   -6.9540 O   0  0  0  0  0  0  0  0  0  0  0  0
  -17.2720   17.1410   -7.0670 N   0  0  0  0  0  0  0  0  0  0  0  0
  -17.5580   17.2360   -5.6410 C   0  0  2  0  0  0  0  0  0  0  0  0
  -19.0150   17.5520   -5.3580 C   0  0  0  0  0  0  0  0  0  0  0  0
  -19.7720   17.9490   -6.2700 O   0  0  0  0  0  0  0  0  0  0  0  0
  -16.6580   18.2920   -4.9490 C   0  0  0  0  0  0  0  0  0  0  0  0
  -15.2020   17.9080   -5.0490 C   0  0  0  0  0  0  0  0  0  0  0  0
  -16.9070   19.6900   -5.4900 C   0  0  0  0  0  0  0  0  0  0  0  0
  -19.3870   17.3640   -4.1780 O   0  0  0  0  0  0  0  0  0  0  0  0
  2  1  1  1
  3  2  1  0
  4  3  2  0
  5  2  1  0
  6  5  1  0
  7  6  2  0
  8  6  1  0
  9  7  1  0
 10  8  2  0
 11 10  1  0
 11  9  2  0
 12  3  1  0
 13 12  1  0
 13 14  1  1
 15 14  2  0
 16 13  1  0
 17 16  1  0
 18 17  1  0
 18 12  1  0
 19 14  1  0
 20 19  1  0
 21 20  1  0
 22 21  2  0
 20 23  1  1
 24 21  1  0
 25 24  1  1
 26 25  1  0
 26 27  1  6
 28 26  1  0
 29 28  1  0
 30 29  1  0
 31 29  1  0
 32 29  1  0
 33 25  1  0
 34 33  1  0
 35 33  1  0
 36 35  1  6
 37 36  1  0
 38 37  2  0
 39 36  1  0
 40 39  1  0
 41 39  1  0
 42 37  1  0
M  END
$$$$
8C0L
     RDKit          3D

 71 72  0  0  0  0  0  0  0  0999 V2000
   12.6870    7.7640   15.1460 N   0  0  0  0  0  0  0  0  0  0  0  0
   13.6140    8.8970   15.0890 C   0  0  2  0  0  0  0  0  0  0  0  0
   12.9410   10.1000   14.4070 C   0  0  0  0  0  0  0  0  0  0  0  0
   12.0710    9.9280   13.5510 O   0  0  0  0  0  0  0  0  0  0  0  0
   14.9180    8.4820   14.3740 C   0  0  0  0  0  0  0  0  0  0  0  0
   14.7380    8.0480   12.9370 C   0  0  0  0  0  0  0  0  0  0  0  0
   14.3720    8.9630   11.9530 C   0  0  0  0  0  0  0  0  0  0  0  0
   14.9520    6.7250   12.5640 C   0  0  0  0  0  0  0  0  0  0  0  0
   14.2020    8.5630   10.6360 C   0  0  0  0  0  0  0  0  0  0  0  0
   14.7850    6.3200   11.2460 C   0  0  0  0  0  0  0  0  0  0  0  0
   14.4150    7.2410   10.2810 C   0  0  0  0  0  0  0  0  0  0  0  0
   13.8640    9.1760   15.9830 H   0  0  0  0  0  0  0  0  0  0  0  0
   15.5260    9.2380   14.3770 H   0  0  0  0  0  0  0  0  0  0  0  0
   15.3120    7.7380   14.8560 H   0  0  0  0  0  0  0  0  0  0  0  0
   14.2390    9.8540   12.1820 H   0  0  0  0  0  0  0  0  0  0  0  0
   15.2110    6.1030   13.2060 H   0  0  0  0  0  0  0  0  0  0  0  0
   13.9460    9.1820    9.9910 H   0  0  0  0  0  0  0  0  0  0  0  0
   14.9230    5.4310   11.0110 H   0  0  0  0  0  0  0  0  0  0  0  0
   14.3090    6.9730    9.3970 H   0  0  0  0  0  0  0  0  0  0  0  0
   13.3200   11.3170   14.7960 N   0  0  0  0  0  0  0  0  0  0  0  0
   12.7370   12.5050   14.1670 C   0  0  2  0  0  0  0  0  0  0  0  0
   13.3560   12.8050   12.8080 C   0  0  0  0  0  0  0  0  0  0  0  0
   14.4180   12.3010   12.4380 O   0  0  0  0  0  0  0  0  0  0  0  0
   13.0630   13.6210   15.1720 C   0  0  0  0  0  0  0  0  0  0  0  0
   14.3970   13.1920   15.7090 C   0  0  0  0  0  0  0  0  0  0  0  0
   14.2970   11.6830   15.8440 C   0  0  0  0  0  0  0  0  0  0  0  0
   11.7770   12.4060   14.0690 H   0  0  0  0  0  0  0  0  0  0  0  0
   13.1180   14.4780   14.7230 H   0  0  0  0  0  0  0  0  0  0  0  0
   12.3910   13.6560   15.8720 H   0  0  0  0  0  0  0  0  0  0  0  0
   15.0990   13.4390   15.0870 H   0  0  0  0  0  0  0  0  0  0  0  0
   14.5560   13.6070   16.5710 H   0  0  0  0  0  0  0  0  0  0  0  0
   15.1550   11.2640   15.6790 H   0  0  0  0  0  0  0  0  0  0  0  0
   13.9700   11.4350   16.7230 H   0  0  0  0  0  0  0  0  0  0  0  0
   12.6600   13.6580   12.0670 N   0  0  0  0  0  0  0  0  0  0  0  0
   13.0360   13.9990   10.7170 C   0  0  2  0  0  0  0  0  0  0  0  0
   14.1450   15.0290   10.6580 C   0  0  0  0  0  0  0  0  0  0  0  0
   14.0760   16.0290   11.3580 O   0  0  0  0  0  0  0  0  0  0  0  0
   11.8190   14.5180    9.9680 C   0  0  0  0  0  0  0  0  0  0  0  0
   11.9490   14.0590   12.3370 H   0  0  0  0  0  0  0  0  0  0  0  0
   13.3710   13.1960   10.2880 H   0  0  0  0  0  0  0  0  0  0  0  0
   12.0790   14.7460    9.0620 H   0  0  0  0  0  0  0  0  0  0  0  0
   11.1390   13.8270    9.9530 H   0  0  0  0  0  0  0  0  0  0  0  0
   11.4810   15.3060   10.4230 H   0  0  0  0  0  0  0  0  0  0  0  0
   15.1600   14.7690    9.8290 N   0  0  0  0  0  0  0  0  0  0  0  0
   16.1960   15.7530    9.4800 C   0  0  1  0  0  0  0  0  0  0  0  0
   17.5470   15.4180   10.1720 C   0  0  1  0  0  0  0  0  0  0  0  0
   17.4070   15.6300   11.6860 C   0  0  0  0  0  0  0  0  0  0  0  0
   17.7800   14.0490    9.8480 O   0  0  0  0  0  0  0  0  0  0  0  0
   19.2400   13.4400   10.2140 P   0  0  0  0  0  0  0  0  0  0  0  0
   19.3310   12.1440    9.2730 O   0  0  0  0  0  0  0  0  0  0  0  0
   19.3140   13.0960   11.6490 O   0  0  0  0  0  0  0  0  0  0  0  0
   20.3520   14.4900    9.7720 O   0  0  0  0  0  0  0  0  0  0  0  0
   16.3660   15.7490    7.9720 C   0  0  0  0  0  0  0  0  0  0  0  0
   15.9780   14.7760    7.2950 O   0  0  0  0  0  0  0  0  0  0  0  0
   16.9450   16.8250    7.4370 N   0  0  0  0  0  0  0  0  0  0  0  0
   17.2220   16.9190    6.0050 C   0  0  2  0  0  0  0  0  0  0  0  0
   18.6650   17.2490    5.7370 C   0  0  0  0  0  0  0  0  0  0  0  0
   19.4070   17.6760    6.6110 O   0  0  0  0  0  0  0  0  0  0  0  0
   16.3610   17.9640    5.2970 C   0  0  0  0  0  0  0  0  0  0  0  0
   14.9750   17.4980    5.2430 C   0  0  0  0  0  0  0  0  0  0  0  0
   16.4970   19.3270    5.9770 C   0  0  0  0  0  0  0  0  0  0  0  0
   19.0950   17.1620    4.5810 O   0  0  0  0  0  0  0  0  0  0  0  0
   17.1890   17.5170    7.8850 H   0  0  0  0  0  0  0  0  0  0  0  0
   17.0130   16.0430    5.6440 H   0  0  0  0  0  0  0  0  0  0  0  0
   16.6650   18.0850    4.3840 H   0  0  0  0  0  0  0  0  0  0  0  0
   14.4330   18.1690    4.8000 H   0  0  0  0  0  0  0  0  0  0  0  0
   14.9410   16.6650    4.7480 H   0  0  0  0  0  0  0  0  0  0  0  0
   14.6540   17.3580    6.1480 H   0  0  0  0  0  0  0  0  0  0  0  0
   15.8980   19.9560    5.5450 H   0  0  0  0  0  0  0  0  0  0  0  0
   16.2640   19.2370    6.9140 H   0  0  0  0  0  0  0  0  0  0  0  0
   17.4140   19.6320    5.8920 H   0  0  0  0  0  0  0  0  0  0  0  0
  2  1  1  0
  3  2  1  0
  4  3  2  0
  5  2  1  0
  6  5  1  0
  7  6  2  0
  8  6  1  0
  9  7  1  0
 10  8  2  0
 11  9  2  0
 11 10  1  0
  2 12  1  1
 13  5  1  0
 14  5  1  0
 15  7  1  0
 16  8  1  0
 17  9  1  0
 18 10  1  0
 19 11  1  0
 20  3  1  0
 21 20  1  0
 22 21  1  0
 23 22  2  0
 24 21  1  0
 25 24  1  0
 26 25  1  0
 26 20  1  0
 21 27  1  6
 28 24  1  0
 29 24  1  0
 30 25  1  0
 31 25  1  0
 32 26  1  0
 33 26  1  0
 34 22  1  0
 35 34  1  0
 36 35  1  0
 37 36  2  0
 38 35  1  0
 39 34  1  0
 35 40  1  6
 41 38  1  0
 42 38  1  0
 43 38  1  0
 44 36  1  0
 45 44  1  6
 46 45  1  0
 46 47  1  1
 48 46  1  0
 49 48  1  0
 50 49  1  0
 51 49  1  0
 52 49  1  0
 53 45  1  0
 54 53  1  0
 55 53  1  0
 56 55  1  0
 57 56  1  0
 58 57  2  0
 59 56  1  0
 60 59  1  0
 61 59  1  0
 62 57  1  0
 63 55  1  0
 56 64  1  6
 65 59  1  0
 66 60  1  0
 67 60  1  0
 68 60  1  0
 69 61  1  0
 70 61  1  0
 71 61  1  0
M  END
$$$$
4MG6
     RDKit          3D

 23 24  0  0  0  0  0  0  0  0999 V2000
   25.2020    3.0030    3.4950 C   0  0  0  0  0  0  0  0  0  0  0  0
   24.9670    2.7260    4.9800 C   0  0  0  0  0  0  0  0  0  0  0  0
   23.4750    2.4860    5.2310 C   0  0  0  0  0  0  0  0  0  0  0  0
   23.0800    3.0340    6.6060 C   0  0  0  0  0  0  0  0  0  0  0  0
   21.6560    3.2070    6.6630 O   0  0  0  0  0  0  0  0  0  0  0  0
   21.3560    4.4620    7.0970 C   0  0  0  0  0  0  0  0  0  0  0  0
   22.2060    5.2820    7.4300 O   0  0  0  0  0  0  0  0  0  0  0  0
   19.9990    4.7650    7.1890 C   0  0  0  0  0  0  0  0  0  0  0  0
   19.3670    4.6430    8.4210 C   0  0  0  0  0  0  0  0  0  0  0  0
   18.0160    4.9340    8.5560 C   0  0  0  0  0  0  0  0  0  0  0  0
   17.2850    5.3600    7.4570 C   0  0  0  0  0  0  0  0  0  0  0  0
   17.9120    5.4920    6.2280 C   0  0  0  0  0  0  0  0  0  0  0  0
   19.2620    5.1970    6.0860 C   0  0  0  0  0  0  0  0  0  0  0  0
   19.8320    5.3450    4.8270 C   0  0  0  0  0  0  0  0  0  0  0  0
   19.1210    5.5880    3.8520 O   0  0  0  0  0  0  0  0  0  0  0  0
   21.1870    5.2260    4.7690 O   0  0  0  0  0  0  0  0  0  0  0  0
   21.6310    5.6610    3.4860 C   0  0  0  0  0  0  0  0  0  0  0  0
   22.5590    6.6820    3.6330 C   0  0  0  0  0  0  0  0  0  0  0  0
   22.2710    7.7820    4.4320 C   0  0  0  0  0  0  0  0  0  0  0  0
   23.2040    8.8050    4.5740 C   0  0  0  0  0  0  0  0  0  0  0  0
   24.4300    8.7320    3.9250 C   0  0  0  0  0  0  0  0  0  0  0  0
   24.7170    7.6300    3.1290 C   0  0  0  0  0  0  0  0  0  0  0  0
   23.7850    6.6060    2.9860 C   0  0  0  0  0  0  0  0  0  0  0  0
  2  1  1  0
  3  2  1  0
  4  3  1  0
  5  4  1  0
  6  5  1  0
  7  6  1  0
  8  6  1  0
  9  8  1  0
 10  9  1  0
 11 10  1  0
 12 11  1  0
 13  8  1  0
 13 12  1  0
 14 13  1  0
 15 14  1  0
 16 14  1  0
 17 16  1  0
 18 17  1  0
 19 18  1  0
 20 19  1  0
 21 20  1  0
 22 21  1  0
 23 22  1  0
 23 18  1  0
M  END
$$$$
3OS8
     RDKit          3D

 28 31  0  0  0  0  0  0  0  0999 V2000
   20.2910   15.6090  -28.5700 C   0  0  0  0  0  0  0  0  0  0  0  0
   19.1170   14.8670  -28.6020 C   0  0  0  0  0  0  0  0  0  0  0  0
   18.2400   14.9130  -27.5250 C   0  0  0  0  0  0  0  0  0  0  0  0
   18.5370   15.6990  -26.4210 C   0  0  0  0  0  0  0  0  0  0  0  0
   19.7120   16.4450  -26.3850 C   0  0  0  0  0  0  0  0  0  0  0  0
   20.6030   16.3960  -27.4640 C   0  0  0  0  0  0  0  0  0  0  0  0
   17.9210   15.9290  -25.1940 C   0  0  1  0  0  0  0  0  0  0  0  0
   18.6660   16.8270  -24.5520 N   0  0  0  0  0  0  0  0  0  0  0  0
   19.6870   17.0760  -25.2040 N   0  0  0  0  0  0  0  0  0  0  0  0
   16.6660   15.4450  -24.8210 C   0  0  1  0  0  0  0  0  0  0  0  0
   20.7340   17.9770  -24.6950 C   0  0  0  0  0  0  0  0  0  0  0  0
   16.0700   14.3720  -25.4800 C   0  0  0  0  0  0  0  0  0  0  0  0
   14.8220   13.9050  -25.0650 C   0  0  0  0  0  0  0  0  0  0  0  0
   14.1700   14.4970  -23.9860 C   0  0  0  0  0  0  0  0  0  0  0  0
   14.7720   15.5520  -23.3200 C   0  0  0  0  0  0  0  0  0  0  0  0
   16.0220   16.0030  -23.7160 C   0  0  2  0  0  0  0  0  0  0  0  0
   16.5530   17.0490  -23.0420 O   0  0  0  0  0  0  0  0  0  0  0  0
   12.9500   14.0630  -23.5550 O   0  0  0  0  0  0  0  0  0  0  0  0
   21.7390   17.0890  -23.9350 C   0  0  0  0  0  0  0  0  0  0  0  0
   22.9710   17.5860  -23.5230 C   0  0  0  0  0  0  0  0  0  0  0  0
   23.8670   16.7710  -22.8430 C   0  0  0  0  0  0  0  0  0  0  0  0
   23.5380   15.4460  -22.5770 C   0  0  0  0  0  0  0  0  0  0  0  0
   22.3090   14.9440  -22.9900 C   0  0  0  0  0  0  0  0  0  0  0  0
   21.4150   15.7610  -23.6710 C   0  0  0  0  0  0  0  0  0  0  0  0
   21.9110   17.2110  -27.5020 C   0  0  2  0  0  0  0  0  0  0  0  0
   22.5810   16.9520  -28.6240 F   0  0  0  0  0  0  0  0  0  0  0  0
   22.6940   16.9860  -26.4570 F   0  0  0  0  0  0  0  0  0  0  0  0
   21.5730   18.4920  -27.5150 F   0  0  0  0  0  0  0  0  0  0  0  0
  2  1  1  0
  3  2  1  0
  4  3  1  0
  5  4  1  0
  6  1  1  0
  6  5  1  0
  7  4  1  0
  7  8  1  6
  9  8  1  0
  9  5  1  0
 10  7  1  0
 11  9  1  0
 10 12  1  1
 13 12  1  0
 14 13  1  0
 15 14  1  0
 16 15  1  0
 16 10  1  0
 16 17  1  6
 18 14  1  0
 19 11  1  0
 20 19  1  0
 21 20  1  0
 22 21  1  0
 23 22  1  0
 24 19  1  0
 24 23  1  0
 25  6  1  0
 25 26  1  6
 27 25  1  0
 28 25  1  0
M  END
$$$$
3Q95
     RDKit          3D

 21 24  0  0  0  0  0  0  0  0999 V2000
    6.4300    4.9350   -6.0160 C   0  0  1  0  0  0  0  0  0  0  0  0
    5.7770    3.7030   -6.6690 C   0  0  0  0  0  0  0  0  0  0  0  0
    4.2920    3.6790   -6.3260 C   0  0  0  0  0  0  0  0  0  0  0  0
    4.0520    3.7320   -4.8100 C   0  0  2  0  0  0  0  0  0  0  0  0
    4.5210    2.4400   -4.1660 C   0  0  0  0  0  0  0  0  0  0  0  0
    2.6320    4.0220   -4.3710 C   0  0  1  0  0  0  0  0  0  0  0  0
    1.7760    2.8750   -4.4650 O   0  0  0  0  0  0  0  0  0  0  0  0
    2.8170    4.4800   -2.9070 C   0  0  2  0  0  0  0  0  0  0  0  0
    1.8620    5.4700   -2.5220 O   0  0  0  0  0  0  0  0  0  0  0  0
    4.2370    5.0220   -2.8010 C   0  0  0  0  0  0  0  0  0  0  0  0
    4.7360    4.9550   -4.2420 C   0  0  1  0  0  0  0  0  0  0  0  0
    6.2260    4.9390   -4.4960 C   0  0  2  0  0  0  0  0  0  0  0  0
    6.8860    6.1580   -3.8710 C   0  0  0  0  0  0  0  0  0  0  0  0
    8.3860    6.0280   -4.0130 C   0  0  0  0  0  0  0  0  0  0  0  0
    8.7760    5.6530   -5.4150 C   0  0  0  0  0  0  0  0  0  0  0  0
   10.1000    5.8410   -5.7570 C   0  0  0  0  0  0  0  0  0  0  0  0
   10.5430    5.5150   -7.0280 C   0  0  0  0  0  0  0  0  0  0  0  0
   11.8410    5.6940   -7.3280 O   0  0  0  0  0  0  0  0  0  0  0  0
    9.6650    4.9980   -7.9620 C   0  0  0  0  0  0  0  0  0  0  0  0
    8.3300    4.8050   -7.6220 C   0  0  0  0  0  0  0  0  0  0  0  0
    7.8740    5.1130   -6.3470 C   0  0  2  0  0  0  0  0  0  0  0  0
  1  2  1  1
  3  2  1  0
  4  3  1  0
  4  5  1  1
  6  4  1  0
  6  7  1  1
  8  6  1  0
  8  9  1  6
 10  8  1  0
 11 10  1  1
 11  4  1  0
 12 11  1  0
 12  1  1  0
 12 13  1  6
 14 13  1  0
 15 14  1  0
 16 15  1  0
 17 16  1  0
 18 17  1  0
 19 17  1  0
 20 19  1  0
 21 20  1  6
 21  1  1  0
 21 15  1  0
M  END
$$$$
5KCF
     RDKit          3D

 69 69  0  0  0  0  0  0  0  0999 V2000
  -10.3290   -1.9640    6.5190 N   0  0  0  0  0  0  0  0  0  0  0  0
  -10.0250   -0.5430    6.6290 C   0  0  2  0  0  0  0  0  0  0  0  0
  -10.9670    0.1340    7.6190 C   0  0  0  0  0  0  0  0  0  0  0  0
  -12.0970   -0.3110    7.8190 O   0  0  0  0  0  0  0  0  0  0  0  0
  -10.1080    0.1380    5.2600 C   0  0  0  0  0  0  0  0  0  0  0  0
  -10.4900    1.2050    8.2460 N   0  0  0  0  0  0  0  0  0  0  0  0
  -11.2890    1.9430    9.2170 C   0  0  2  0  0  0  0  0  0  0  0  0
  -12.4750    2.6210    8.5400 C   0  0  0  0  0  0  0  0  0  0  0  0
  -13.5960    2.5840    9.0500 O   0  0  0  0  0  0  0  0  0  0  0  0
  -10.4430    2.9980    9.9540 C   0  0  2  0  0  0  0  0  0  0  0  0
   -9.2950    2.3250   10.7070 C   0  0  0  0  0  0  0  0  0  0  0  0
  -11.3050    3.8000   10.9150 C   0  0  0  0  0  0  0  0  0  0  0  0
   -8.1750    3.2680   11.0760 C   0  0  0  0  0  0  0  0  0  0  0  0
  -12.2180    3.2350    7.3890 N   0  0  0  0  0  0  0  0  0  0  0  0
  -13.2650    3.8530    6.5800 C   0  0  2  0  0  0  0  0  0  0  0  0
  -14.3610    2.8470    6.2510 C   0  0  0  0  0  0  0  0  0  0  0  0
  -15.5500    3.1570    6.3180 O   0  0  0  0  0  0  0  0  0  0  0  0
  -12.6720    4.4270    5.2910 C   0  0  0  0  0  0  0  0  0  0  0  0
  -13.6610    5.0230    4.2880 C   0  0  0  0  0  0  0  0  0  0  0  0
  -14.4960    6.1060    4.9460 C   0  0  0  0  0  0  0  0  0  0  0  0
  -12.9240    5.5670    3.0720 C   0  0  0  0  0  0  0  0  0  0  0  0
  -13.9310    1.6410    5.8950 N   0  0  0  0  0  0  0  0  0  0  0  0
  -14.8190    0.5190    5.6150 C   0  0  2  0  0  0  0  0  0  0  0  0
  -15.7700    0.2560    6.7820 C   0  0  0  0  0  0  0  0  0  0  0  0
  -16.9760    0.0950    6.5920 O   0  0  0  0  0  0  0  0  0  0  0  0
  -13.9890   -0.7360    5.3270 C   0  0  0  0  0  0  0  0  0  0  0  0
  -14.8010   -1.9640    5.0670 C   0  0  0  0  0  0  0  0  0  0  0  0
  -15.5220   -2.6070    6.0520 N   0  0  0  0  0  0  0  0  0  0  0  0
  -14.9550   -2.7090    3.9480 C   0  0  0  0  0  0  0  0  0  0  0  0
  -16.1190   -3.6700    5.5390 C   0  0  0  0  0  0  0  0  0  0  0  0
  -15.7820   -3.7550    4.2630 N   0  0  0  0  0  0  0  0  0  0  0  0
  -15.2110    0.2020    7.9880 N   0  0  0  0  0  0  0  0  0  0  0  0
  -15.9800   -0.1260    9.1830 C   0  0  2  0  0  0  0  0  0  0  0  0
  -16.9940    0.9580    9.5250 C   0  0  0  0  0  0  0  0  0  0  0  0
  -18.1850    0.6820    9.6620 O   0  0  0  0  0  0  0  0  0  0  0  0
  -15.0510   -0.3510   10.3780 C   0  0  0  0  0  0  0  0  0  0  0  0
  -16.5090    2.1900    9.6610 N   0  0  0  0  0  0  0  0  0  0  0  0
  -17.3450    3.3210   10.0550 C   0  0  2  0  0  0  0  0  0  0  0  0
  -18.5160    3.5430    9.1010 C   0  0  0  0  0  0  0  0  0  0  0  0
  -19.5340    4.1210    9.4800 O   0  0  0  0  0  0  0  0  0  0  0  0
  -16.5010    4.5950   10.1430 C   0  0  0  0  0  0  0  0  0  0  0  0
  -15.2770    4.5460   11.0600 C   0  0  0  0  0  0  0  0  0  0  0  0
  -14.6120    5.9100   11.1480 C   0  0  0  0  0  0  0  0  0  0  0  0
  -15.6610    4.0440   12.4420 C   0  0  0  0  0  0  0  0  0  0  0  0
  -18.3670    3.0770    7.8660 N   0  0  0  0  0  0  0  0  0  0  0  0
  -19.4060    3.2310    6.8540 C   0  0  2  0  0  0  0  0  0  0  0  0
  -20.5770    2.2710    7.0540 C   0  0  0  0  0  0  0  0  0  0  0  0
  -21.7230    2.6270    6.7870 O   0  0  0  0  0  0  0  0  0  0  0  0
  -18.8140    3.0340    5.4570 C   0  0  0  0  0  0  0  0  0  0  0  0
  -18.1760    4.2670    4.8140 C   0  0  0  0  0  0  0  0  0  0  0  0
  -17.3810    3.8760    3.5830 C   0  0  0  0  0  0  0  0  0  0  0  0
  -19.2420    5.2890    4.4600 C   0  0  0  0  0  0  0  0  0  0  0  0
  -20.2950    1.0590    7.5220 N   0  0  0  0  0  0  0  0  0  0  0  0
  -21.3390    0.0420    7.6280 C   0  0  2  0  0  0  0  0  0  0  0  0
  -21.9930   -0.0020    9.0080 C   0  0  0  0  0  0  0  0  0  0  0  0
  -22.8190   -0.8730    9.2780 O   0  0  0  0  0  0  0  0  0  0  0  0
  -20.7790   -1.3390    7.2780 C   0  0  0  0  0  0  0  0  0  0  0  0
  -19.7420   -1.8700    8.2490 C   0  0  0  0  0  0  0  0  0  0  0  0
  -19.2850   -3.2720    7.8940 C   0  0  0  0  0  0  0  0  0  0  0  0
  -19.8010   -3.8880    6.9600 O   0  0  0  0  0  0  0  0  0  0  0  0
  -18.3140   -3.7850    8.6400 N   0  0  0  0  0  0  0  0  0  0  0  0
  -21.6290    0.9390    9.8750 N   0  0  0  0  0  0  0  0  0  0  0  0
  -22.2500    1.0400   11.1920 C   0  0  2  0  0  0  0  0  0  0  0  0
  -23.7290    1.3980   11.0810 C   0  0  0  0  0  0  0  0  0  0  0  0
  -24.1140    2.5520   11.2700 O   0  0  0  0  0  0  0  0  0  0  0  0
  -21.5270    2.0770   12.0540 C   0  0  0  0  0  0  0  0  0  0  0  0
  -20.3160    1.5050   12.7620 C   0  0  0  0  0  0  0  0  0  0  0  0
  -19.8970    0.3800   12.4160 O   0  0  0  0  0  0  0  0  0  0  0  0
  -19.7830    2.1810   13.6670 O   0  0  0  0  0  0  0  0  0  0  0  0
  2  1  1  0
  3  2  1  0
  4  3  2  0
  2  5  1  6
  6  3  1  0
  7  6  1  6
  8  7  1  0
  9  8  2  0
 10  7  1  0
 11 10  1  0
 10 12  1  1
 13 11  1  0
 14  8  1  0
 15 14  1  0
 16 15  1  0
 17 16  2  0
 15 18  1  6
 19 18  1  0
 20 19  1  0
 21 19  1  0
 22 16  1  0
 23 22  1  0
 24 23  1  0
 25 24  2  0
 23 26  1  1
 27 26  1  0
 28 27  1  0
 29 27  2  0
 30 28  2  0
 31 29  1  0
 31 30  1  0
 32 24  1  0
 33 32  1  0
 34 33  1  0
 35 34  2  0
 33 36  1  1
 37 34  1  0
 38 37  1  0
 39 38  1  0
 40 39  2  0
 38 41  1  6
 42 41  1  0
 43 42  1  0
 44 42  1  0
 45 39  1  0
 46 45  1  0
 47 46  1  0
 48 47  2  0
 46 49  1  6
 50 49  1  0
 51 50  1  0
 52 50  1  0
 53 47  1  0
 54 53  1  0
 55 54  1  0
 56 55  2  0
 54 57  1  1
 58 57  1  0
 59 58  1  0
 60 59  2  0
 61 59  1  0
 62 55  1  0
 63 62  1  0
 64 63  1  0
 65 64  2  0
 63 66  1  1
 67 66  1  0
 68 67  2  0
 69 67  1  0
M  END
$$$$
8BZE
     RDKit          3D

 76 77  0  0  0  0  0  0  0  0999 V2000
   12.8770    7.6880   14.5990 N   0  0  0  0  0  0  0  0  0  0  0  0
   13.7450    8.8630   14.6570 C   0  0  2  0  0  0  0  0  0  0  0  0
   13.0470   10.0770   14.0280 C   0  0  0  0  0  0  0  0  0  0  0  0
   12.1850    9.9230   13.1570 O   0  0  0  0  0  0  0  0  0  0  0  0
   15.0850    8.5730   13.9650 C   0  0  0  0  0  0  0  0  0  0  0  0
   14.9560    8.0330   12.5660 C   0  0  0  0  0  0  0  0  0  0  0  0
   15.0170    6.6670   12.3260 C   0  0  0  0  0  0  0  0  0  0  0  0
   14.7820    8.8880   11.4880 C   0  0  0  0  0  0  0  0  0  0  0  0
   14.9040    6.1660   11.0360 C   0  0  0  0  0  0  0  0  0  0  0  0
   14.6640    8.3950   10.1990 C   0  0  0  0  0  0  0  0  0  0  0  0
   14.7330    7.0330    9.9700 C   0  0  0  0  0  0  0  0  0  0  0  0
   13.9410    9.0820   15.5810 H   0  0  0  0  0  0  0  0  0  0  0  0
   15.5930    9.3970   13.9160 H   0  0  0  0  0  0  0  0  0  0  0  0
   15.5690    7.9160   14.4900 H   0  0  0  0  0  0  0  0  0  0  0  0
   15.1340    6.0800   13.0380 H   0  0  0  0  0  0  0  0  0  0  0  0
   14.7450    9.8060   11.6330 H   0  0  0  0  0  0  0  0  0  0  0  0
   14.9440    5.2490   10.8880 H   0  0  0  0  0  0  0  0  0  0  0  0
   14.5370    8.9800    9.4870 H   0  0  0  0  0  0  0  0  0  0  0  0
   14.6650    6.7010    9.1040 H   0  0  0  0  0  0  0  0  0  0  0  0
   13.4050   11.2800   14.4720 N   0  0  0  0  0  0  0  0  0  0  0  0
   12.8370   12.4900   13.8720 C   0  0  2  0  0  0  0  0  0  0  0  0
   13.4850   12.7770   12.5280 C   0  0  0  0  0  0  0  0  0  0  0  0
   14.5480   12.2500   12.1820 O   0  0  0  0  0  0  0  0  0  0  0  0
   13.1900   13.5770   14.8910 C   0  0  0  0  0  0  0  0  0  0  0  0
   14.5070   13.1140   15.4470 C   0  0  0  0  0  0  0  0  0  0  0  0
   14.4240   11.5990   15.4890 C   0  0  0  0  0  0  0  0  0  0  0  0
   11.8730   12.4300   13.7770 H   0  0  0  0  0  0  0  0  0  0  0  0
   13.2750   14.4370   14.4510 H   0  0  0  0  0  0  0  0  0  0  0  0
   12.5110   13.6240   15.5830 H   0  0  0  0  0  0  0  0  0  0  0  0
   15.2280   13.4030   14.8660 H   0  0  0  0  0  0  0  0  0  0  0  0
   14.6330   13.4770   16.3380 H   0  0  0  0  0  0  0  0  0  0  0  0
   15.2780   11.2010   15.2580 H   0  0  0  0  0  0  0  0  0  0  0  0
   14.1420   11.2940   16.3660 H   0  0  0  0  0  0  0  0  0  0  0  0
   12.8250   13.6380   11.7680 N   0  0  0  0  0  0  0  0  0  0  0  0
   13.2250   13.9030   10.4040 C   0  0  2  0  0  0  0  0  0  0  0  0
   14.3030   14.9790   10.3620 C   0  0  0  0  0  0  0  0  0  0  0  0
   14.1980   15.9870   11.0640 O   0  0  0  0  0  0  0  0  0  0  0  0
   12.0310   14.3410    9.5620 C   0  0  0  0  0  0  0  0  0  0  0  0
   12.1360   14.0840   12.0240 H   0  0  0  0  0  0  0  0  0  0  0  0
   13.5800   13.0850   10.0220 H   0  0  0  0  0  0  0  0  0  0  0  0
   12.3290   14.5110    8.6550 H   0  0  0  0  0  0  0  0  0  0  0  0
   11.3670   13.6340    9.5650 H   0  0  0  0  0  0  0  0  0  0  0  0
   11.6550   15.1490    9.9440 H   0  0  0  0  0  0  0  0  0  0  0  0
   15.3060   14.7780    9.5130 N   0  0  0  0  0  0  0  0  0  0  0  0
   16.3650   15.7550    9.2230 C   0  0  1  0  0  0  0  0  0  0  0  0
   17.6770   15.3980    9.9650 C   0  0  1  0  0  0  0  0  0  0  0  0
   17.4960   15.5890   11.4710 C   0  0  2  0  0  0  0  0  0  0  0  0
   17.9440   14.0410    9.5760 O   0  0  0  0  0  0  0  0  0  0  0  0
   19.3890   13.4010    9.9670 P   0  0  0  0  0  0  0  0  0  0  0  0
   19.4380   12.0990    9.0850 O   0  0  0  0  0  0  0  0  0  0  0  0
   19.4270   13.0610   11.4030 O   0  0  0  0  0  0  0  0  0  0  0  0
   20.5270   14.4120    9.5470 O   0  0  0  0  0  0  0  0  0  0  0  0
   16.5450   15.7670    7.6870 C   0  0  1  0  0  0  0  0  0  0  0  0
   16.1650   14.8190    7.0080 O   0  0  0  0  0  0  0  0  0  0  0  0
   16.1350   16.6520    9.5460 H   0  0  0  0  0  0  0  0  0  0  0  0
   18.5230   16.0370    9.7090 H   0  0  0  0  0  0  0  0  0  0  0  0
   17.2060   16.6200   11.6750 H   0  0  0  0  0  0  0  0  0  0  0  0
   18.4330   15.3680   11.9820 H   0  0  0  0  0  0  0  0  0  0  0  0
   16.7180   14.9160   11.8320 H   0  0  0  0  0  0  0  0  0  0  0  0
   17.0600   16.8590    7.1550 N   0  0  0  0  0  0  0  0  0  0  0  0
   17.3420   16.9940    5.7580 C   0  0  2  0  0  0  0  0  0  0  0  0
   18.7610   17.3740    5.4430 C   0  0  0  0  0  0  0  0  0  0  0  0
   19.1810   17.3170    4.2690 O   0  0  0  0  0  0  0  0  0  0  0  0
   16.3940   18.0020    5.0620 C   0  0  0  0  0  0  0  0  0  0  0  0
   15.0080   17.5930    5.0500 C   0  0  0  0  0  0  0  0  0  0  0  0
   16.5600   19.3990    5.6190 C   0  0  0  0  0  0  0  0  0  0  0  0
   19.5070   17.7440    6.3510 O   0  0  0  0  0  0  0  0  0  0  0  0
   17.2610   17.5620    7.6090 H   0  0  0  0  0  0  0  0  0  0  0  0
   17.2010   16.1030    5.4010 H   0  0  0  0  0  0  0  0  0  0  0  0
   16.6610   18.0190    4.1300 H   0  0  0  0  0  0  0  0  0  0  0  0
   14.9320   16.7480    4.5800 H   0  0  0  0  0  0  0  0  0  0  0  0
   14.4820   18.2710    4.5990 H   0  0  0  0  0  0  0  0  0  0  0  0
   14.7010   17.4910    5.9650 H   0  0  0  0  0  0  0  0  0  0  0  0
   15.8980   19.9810    5.2130 H   0  0  0  0  0  0  0  0  0  0  0  0
   16.4330   19.3720    6.5800 H   0  0  0  0  0  0  0  0  0  0  0  0
   17.4520   19.7170    5.4120 H   0  0  0  0  0  0  0  0  0  0  0  0
  2  1  1  0
  3  2  1  0
  4  3  2  0
  5  2  1  0
  6  5  1  0
  7  6  2  0
  8  6  1  0
  9  7  1  0
 10  8  2  0
 11 10  1  0
 11  9  2  0
  2 12  1  1
 13  5  1  0
 14  5  1  0
 15  7  1  0
 16  8  1  0
 17  9  1  0
 18 10  1  0
 19 11  1  0
 20  3  1  0
 21 20  1  0
 22 21  1  0
 23 22  2  0
 24 21  1  0
 25 24  1  0
 26 25  1  0
 26 20  1  0
 21 27  1  6
 28 24  1  0
 29 24  1  0
 30 25  1  0
 31 25  1  0
 32 26  1  0
 33 26  1  0
 34 22  1  0
 35 34  1  0
 36 35  1  0
 37 36  2  0
 38 35  1  0
 39 34  1  0
 35 40  1  6
 41 38  1  0
 42 38  1  0
 43 38  1  0
 44 36  1  0
 45 44  1  0
 46 45  1  0
 47 46  1  0
 48 46  1  0
 49 48  1  0
 50 49  1  0
 51 49  1  0
 52 49  1  0
 53 45  1  0
 53 54  1  6
 45 55  1  1
 46 56  1  6
 47 57  1  6
 58 47  1  0
 59 47  1  0
 60 53  1  0
 61 60  1  0
 62 61  1  0
 63 62  2  0
 64 61  1  0
 65 64  1  0
 66 64  1  0
 67 62  1  0
 68 60  1  0
 61 69  1  6
 70 64  1  0
 71 65  1  0
 72 65  1  0
 73 65  1  0
 74 66  1  0
 75 66  1  0
 76 66  1  0
M  END
$$$$
2B23
     RDKit          3D

 79 79  0  0  0  0  0  0  0  0999 V2000
  -19.4560  -21.3340   33.9960 N   0  0  0  0  0  0  0  0  0  0  0  0
  -18.9050  -19.9640   34.2890 C   0  0  2  0  0  0  0  0  0  0  0  0
  -19.8720  -19.1000   35.1150 C   0  0  0  0  0  0  0  0  0  0  0  0
  -21.0330  -19.4650   35.2970 O   0  0  0  0  0  0  0  0  0  0  0  0
  -18.4400  -19.2570   33.0040 C   0  0  0  0  0  0  0  0  0  0  0  0
  -19.5060  -19.0120   31.9360 C   0  0  0  0  0  0  0  0  0  0  0  0
  -18.8760  -18.5170   30.6190 C   0  0  0  0  0  0  0  0  0  0  0  0
  -17.7130  -17.5370   30.8440 C   0  0  0  0  0  0  0  0  0  0  0  0
  -18.1040  -16.0790   30.8790 N   0  0  0  0  0  0  0  0  0  0  0  0
  -19.3920  -17.9620   35.6210 N   0  0  0  0  0  0  0  0  0  0  0  0
  -20.1640  -17.1680   36.5950 C   0  0  2  0  0  0  0  0  0  0  0  0
  -21.4360  -16.5690   36.0190 C   0  0  0  0  0  0  0  0  0  0  0  0
  -22.4820  -16.5300   36.6810 O   0  0  0  0  0  0  0  0  0  0  0  0
  -19.3040  -16.0650   37.2580 C   0  0  2  0  0  0  0  0  0  0  0  0
  -18.1880  -16.7110   38.0860 C   0  0  0  0  0  0  0  0  0  0  0  0
  -20.1680  -15.1630   38.1370 C   0  0  0  0  0  0  0  0  0  0  0  0
  -17.1440  -15.7530   38.5580 C   0  0  0  0  0  0  0  0  0  0  0  0
  -21.3360  -16.1210   34.7740 N   0  0  0  0  0  0  0  0  0  0  0  0
  -22.4530  -15.5250   34.0620 C   0  0  2  0  0  0  0  0  0  0  0  0
  -23.5360  -16.5570   33.8190 C   0  0  0  0  0  0  0  0  0  0  0  0
  -24.7290  -16.2500   33.8910 O   0  0  0  0  0  0  0  0  0  0  0  0
  -21.9770  -14.9300   32.7260 C   0  0  0  0  0  0  0  0  0  0  0  0
  -23.0150  -14.3160   31.7900 C   0  0  0  0  0  0  0  0  0  0  0  0
  -23.8850  -13.2900   32.5020 C   0  0  0  0  0  0  0  0  0  0  0  0
  -22.3120  -13.6740   30.5990 C   0  0  0  0  0  0  0  0  0  0  0  0
  -23.1060  -17.7740   33.5050 N   0  0  0  0  0  0  0  0  0  0  0  0
  -24.0060  -18.8720   33.2510 C   0  0  2  0  0  0  0  0  0  0  0  0
  -24.8910  -19.0770   34.4790 C   0  0  0  0  0  0  0  0  0  0  0  0
  -26.1160  -19.1730   34.3620 O   0  0  0  0  0  0  0  0  0  0  0  0
  -23.2020  -20.1370   32.9150 C   0  0  0  0  0  0  0  0  0  0  0  0
  -24.0460  -21.3370   32.6010 C   0  0  0  0  0  0  0  0  0  0  0  0
  -24.7650  -21.4560   31.4300 N   0  0  0  0  0  0  0  0  0  0  0  0
  -24.2650  -22.4800   33.2950 C   0  0  0  0  0  0  0  0  0  0  0  0
  -25.4000  -22.6160   31.4220 C   0  0  0  0  0  0  0  0  0  0  0  0
  -25.1110  -23.2590   32.5410 N   0  0  0  0  0  0  0  0  0  0  0  0
  -24.2700  -19.0930   35.6570 N   0  0  0  0  0  0  0  0  0  0  0  0
  -24.9930  -19.3360   36.8990 C   0  0  2  0  0  0  0  0  0  0  0  0
  -25.8560  -18.1430   37.3240 C   0  0  0  0  0  0  0  0  0  0  0  0
  -26.9580  -18.3190   37.8420 O   0  0  0  0  0  0  0  0  0  0  0  0
  -24.0330  -19.7360   38.0330 C   0  0  0  0  0  0  0  0  0  0  0  0
  -24.6200  -20.8160   38.9320 C   0  0  0  0  0  0  0  0  0  0  0  0
  -23.7590  -21.1140   40.1670 C   0  0  0  0  0  0  0  0  0  0  0  0
  -24.4210  -20.7100   41.4100 N   0  0  0  0  0  0  0  0  0  0  0  0
  -25.4060  -21.3910   41.9970 C   0  0  0  0  0  0  0  0  0  0  0  0
  -25.9420  -20.9470   43.1290 N   0  0  0  0  0  0  0  0  0  0  0  0
  -25.8590  -22.5190   41.4590 N   0  0  0  0  0  0  0  0  0  0  0  0
  -25.3520  -16.9350   37.1140 N   0  0  0  0  0  0  0  0  0  0  0  0
  -26.1240  -15.7260   37.4140 C   0  0  2  0  0  0  0  0  0  0  0  0
  -27.3910  -15.6560   36.5850 C   0  0  0  0  0  0  0  0  0  0  0  0
  -28.4470  -15.2560   37.0800 O   0  0  0  0  0  0  0  0  0  0  0  0
  -25.2820  -14.4680   37.1800 C   0  0  0  0  0  0  0  0  0  0  0  0
  -24.6970  -13.7490   38.4060 C   0  0  0  0  0  0  0  0  0  0  0  0
  -24.5560  -14.6730   39.5950 C   0  0  0  0  0  0  0  0  0  0  0  0
  -23.3630  -13.0770   38.0710 C   0  0  0  0  0  0  0  0  0  0  0  0
  -27.2830  -16.0590   35.3230 N   0  0  0  0  0  0  0  0  0  0  0  0
  -28.4170  -16.0230   34.4120 C   0  0  2  0  0  0  0  0  0  0  0  0
  -29.5300  -16.9920   34.7630 C   0  0  0  0  0  0  0  0  0  0  0  0
  -30.6960  -16.6280   34.6800 O   0  0  0  0  0  0  0  0  0  0  0  0
  -27.9710  -16.2800   32.9810 C   0  0  0  0  0  0  0  0  0  0  0  0
  -27.6360  -15.0120   32.2080 C   0  0  0  0  0  0  0  0  0  0  0  0
  -26.8700  -15.3680   30.9640 C   0  0  0  0  0  0  0  0  0  0  0  0
  -28.8970  -14.2200   31.8590 C   0  0  0  0  0  0  0  0  0  0  0  0
  -29.1720  -18.2210   35.1390 N   0  0  0  0  0  0  0  0  0  0  0  0
  -30.1680  -19.2430   35.4400 C   0  0  2  0  0  0  0  0  0  0  0  0
  -30.6140  -19.2290   36.9070 C   0  0  0  0  0  0  0  0  0  0  0  0
  -31.5490  -19.9400   37.2870 O   0  0  0  0  0  0  0  0  0  0  0  0
  -29.6840  -20.6380   35.0100 C   0  0  0  0  0  0  0  0  0  0  0  0
  -28.3690  -21.0530   35.6010 C   0  0  0  0  0  0  0  0  0  0  0  0
  -27.9350  -22.4380   35.1630 C   0  0  0  0  0  0  0  0  0  0  0  0
  -28.4930  -23.0200   34.2290 O   0  0  0  0  0  0  0  0  0  0  0  0
  -26.9320  -22.9760   35.8430 N   0  0  0  0  0  0  0  0  0  0  0  0
  -29.9520  -18.4150   37.7230 N   0  0  0  0  0  0  0  0  0  0  0  0
  -30.3880  -18.1940   39.0990 C   0  0  2  0  0  0  0  0  0  0  0  0
  -31.6560  -17.3460   39.1350 C   0  0  0  0  0  0  0  0  0  0  0  0
  -31.6160  -16.1400   38.8740 O   0  0  0  0  0  0  0  0  0  0  0  0
  -29.2890  -17.5080   39.9150 C   0  0  0  0  0  0  0  0  0  0  0  0
  -28.3780  -18.4980   40.6160 C   0  0  0  0  0  0  0  0  0  0  0  0
  -27.2300  -18.1150   40.9430 O   0  0  0  0  0  0  0  0  0  0  0  0
  -28.8050  -19.6540   40.8440 O   0  0  0  0  0  0  0  0  0  0  0  0
  2  1  1  6
  3  2  1  0
  4  3  2  0
  5  2  1  0
  6  5  1  0
  7  6  1  0
  8  7  1  0
  9  8  1  0
 10  3  1  0
 11 10  1  6
 12 11  1  0
 13 12  2  0
 14 11  1  0
 15 14  1  0
 14 16  1  1
 17 15  1  0
 18 12  1  0
 19 18  1  0
 20 19  1  0
 21 20  2  0
 19 22  1  6
 23 22  1  0
 24 23  1  0
 25 23  1  0
 26 20  1  0
 27 26  1  0
 28 27  1  0
 29 28  2  0
 27 30  1  1
 31 30  1  0
 32 31  1  0
 33 31  2  0
 34 32  2  0
 35 34  1  0
 35 33  1  0
 36 28  1  0
 37 36  1  0
 38 37  1  0
 39 38  2  0
 37 40  1  1
 41 40  1  0
 42 41  1  0
 43 42  1  0
 44 43  1  0
 45 44  1  0
 46 44  2  0
 47 38  1  0
 48 47  1  0
 49 48  1  0
 50 49  2  0
 48 51  1  6
 52 51  1  0
 53 52  1  0
 54 52  1  0
 55 49  1  0
 56 55  1  0
 57 56  1  0
 58 57  2  0
 56 59  1  6
 60 59  1  0
 61 60  1  0
 62 60  1  0
 63 57  1  0
 64 63  1  0
 65 64  1  0
 66 65  2  0
 64 67  1  1
 68 67  1  0
 69 68  1  0
 70 69  2  0
 71 69  1  0
 72 65  1  0
 73 72  1  0
 74 73  1  0
 75 74  2  0
 73 76  1  1
 77 76  1  0
 78 77  2  0
 79 77  1  0
M  END
$$$$
7JHD
     RDKit          3D

 61 61  0  0  0  0  0  0  0  0999 V2000
   29.5300   10.3940    6.4190 N   0  0  0  0  0  0  0  0  0  0  0  0
   28.6540    9.2560    6.1710 C   0  0  2  0  0  0  0  0  0  0  0  0
   28.4180    9.0580    4.6760 C   0  0  0  0  0  0  0  0  0  0  0  0
   28.1800   10.0190    3.9440 O   0  0  0  0  0  0  0  0  0  0  0  0
   27.3290    9.4380    6.8980 C   0  0  0  0  0  0  0  0  0  0  0  0
   28.4890    7.8080    4.2300 N   0  0  0  0  0  0  0  0  0  0  0  0
   28.2540    7.4740    2.8300 C   0  0  2  0  0  0  0  0  0  0  0  0
   26.8080    7.7710    2.4470 C   0  0  0  0  0  0  0  0  0  0  0  0
   26.5200    8.1710    1.3170 O   0  0  0  0  0  0  0  0  0  0  0  0
   28.5700    5.9910    2.5430 C   0  0  2  0  0  0  0  0  0  0  0  0
   29.9830    5.6450    3.0130 C   0  0  0  0  0  0  0  0  0  0  0  0
   28.4100    5.6790    1.0620 C   0  0  0  0  0  0  0  0  0  0  0  0
   30.3710    4.2050    2.7630 C   0  0  0  0  0  0  0  0  0  0  0  0
   25.9050    7.5870    3.4060 N   0  0  0  0  0  0  0  0  0  0  0  0
   24.4810    7.8300    3.1980 C   0  0  2  0  0  0  0  0  0  0  0  0
   24.2070    9.2820    2.8070 C   0  0  0  0  0  0  0  0  0  0  0  0
   23.2120    9.5790    2.1460 O   0  0  0  0  0  0  0  0  0  0  0  0
   23.6950    7.4630    4.4590 C   0  0  0  0  0  0  0  0  0  0  0  0
   22.1690    7.5210    4.3830 C   0  0  0  0  0  0  0  0  0  0  0  0
   21.6560    6.6390    3.2610 C   0  0  0  0  0  0  0  0  0  0  0  0
   21.5520    7.1100    5.7090 C   0  0  0  0  0  0  0  0  0  0  0  0
   25.0990   10.1810    3.2150 N   0  0  0  0  0  0  0  0  0  0  0  0
   24.9900   11.5910    2.8600 C   0  0  2  0  0  0  0  0  0  0  0  0
   25.1530   11.8040    1.3580 C   0  0  0  0  0  0  0  0  0  0  0  0
   24.3130   12.4350    0.7160 O   0  0  0  0  0  0  0  0  0  0  0  0
   26.0350   12.4190    3.6140 C   0  0  0  0  0  0  0  0  0  0  0  0
   25.7780   12.5290    5.0840 C   0  0  0  0  0  0  0  0  0  0  0  0
   24.5360   12.3170    5.6410 N   0  0  0  0  0  0  0  0  0  0  0  0
   26.6040   12.8340    6.1130 C   0  0  0  0  0  0  0  0  0  0  0  0
   24.6080   12.4850    6.9500 C   0  0  0  0  0  0  0  0  0  0  0  0
   25.8520   12.7990    7.2620 N   0  0  0  0  0  0  0  0  0  0  0  0
   26.2410   11.2740    0.8080 N   0  0  0  0  0  0  0  0  0  0  0  0
   26.5730   11.4670   -0.6010 C   0  0  2  0  0  0  0  0  0  0  0  0
   25.5420   10.8380   -1.5330 C   0  0  0  0  0  0  0  0  0  0  0  0
   25.2350   11.3870   -2.5910 O   0  0  0  0  0  0  0  0  0  0  0  0
   27.9590   10.8930   -0.9010 C   0  0  0  0  0  0  0  0  0  0  0  0
   25.0120    9.6870   -1.1360 N   0  0  0  0  0  0  0  0  0  0  0  0
   24.0480    8.9660   -1.9590 C   0  0  2  0  0  0  0  0  0  0  0  0
   22.6930    9.6690   -1.9790 C   0  0  0  0  0  0  0  0  0  0  0  0
   21.9480    9.5710   -2.9550 O   0  0  0  0  0  0  0  0  0  0  0  0
   23.8960    7.5280   -1.4600 C   0  0  0  0  0  0  0  0  0  0  0  0
   25.1920    6.7110   -1.4720 C   0  0  0  0  0  0  0  0  0  0  0  0
   24.9680    5.3070   -0.9340 C   0  0  0  0  0  0  0  0  0  0  0  0
   25.7800    6.6630   -2.8750 C   0  0  0  0  0  0  0  0  0  0  0  0
   22.3810   10.3810   -0.9010 N   0  0  0  0  0  0  0  0  0  0  0  0
   21.1480   11.1590   -0.8270 C   0  0  2  0  0  0  0  0  0  0  0  0
   21.2720   12.4590   -1.6160 C   0  0  0  0  0  0  0  0  0  0  0  0
   20.2740   13.1250   -1.8930 O   0  0  0  0  0  0  0  0  0  0  0  0
   20.7870   11.4580    0.6290 C   0  0  0  0  0  0  0  0  0  0  0  0
   20.0160   10.3720    1.3810 C   0  0  0  0  0  0  0  0  0  0  0  0
   19.9900   10.6680    2.8690 C   0  0  0  0  0  0  0  0  0  0  0  0
   18.6010   10.2570    0.8390 C   0  0  0  0  0  0  0  0  0  0  0  0
   22.5020   12.8160   -1.9730 N   0  0  0  0  0  0  0  0  0  0  0  0
   22.7570   14.0230   -2.7490 C   0  0  2  0  0  0  0  0  0  0  0  0
   23.2020   13.6820   -4.1680 C   0  0  0  0  0  0  0  0  0  0  0  0
   22.3760   13.4420   -5.0480 O   0  0  0  0  0  0  0  0  0  0  0  0
   23.8120   14.8910   -2.0620 C   0  0  0  0  0  0  0  0  0  0  0  0
   23.4550   15.2940   -0.6420 C   0  0  0  0  0  0  0  0  0  0  0  0
   24.5060   16.1840   -0.0070 C   0  0  0  0  0  0  0  0  0  0  0  0
   24.4710   17.4060   -0.1520 O   0  0  0  0  0  0  0  0  0  0  0  0
   25.4470   15.5740    0.7040 N   0  0  0  0  0  0  0  0  0  0  0  0
  2  1  1  0
  3  2  1  0
  4  3  2  0
  2  5  1  1
  6  3  1  0
  7  6  1  1
  8  7  1  0
  9  8  2  0
 10  7  1  0
 11 10  1  0
 10 12  1  6
 13 11  1  0
 14  8  1  0
 15 14  1  0
 16 15  1  0
 17 16  2  0
 15 18  1  1
 19 18  1  0
 20 19  1  0
 21 19  1  0
 22 16  1  0
 23 22  1  0
 24 23  1  0
 25 24  2  0
 23 26  1  1
 27 26  1  0
 28 27  1  0
 29 27  2  0
 30 28  2  0
 31 30  1  0
 31 29  1  0
 32 24  1  0
 33 32  1  0
 34 33  1  0
 35 34  2  0
 33 36  1  1
 37 34  1  0
 38 37  1  0
 39 38  1  0
 40 39  2  0
 38 41  1  1
 42 41  1  0
 43 42  1  0
 44 42  1  0
 45 39  1  0
 46 45  1  0
 47 46  1  0
 48 47  2  0
 46 49  1  1
 50 49  1  0
 51 50  1  0
 52 50  1  0
 53 47  1  0
 54 53  1  0
 55 54  1  0
 56 55  2  0
 54 57  1  1
 58 57  1  0
 59 58  1  0
 60 59  2  0
 61 59  1  0
M  END
$$$$
8BXM
     RDKit          3D

 71 72  0  0  0  0  0  0  0  0999 V2000
   12.7050    7.9200   14.6750 N   0  0  0  0  0  0  0  0  0  0  0  0
   13.6290    9.0570   14.6580 C   0  0  2  0  0  0  0  0  0  0  0  0
   12.9550   10.2800   14.0270 C   0  0  0  0  0  0  0  0  0  0  0  0
   12.0680   10.1490   13.1840 O   0  0  0  0  0  0  0  0  0  0  0  0
   14.9280    8.6760   13.9220 C   0  0  0  0  0  0  0  0  0  0  0  0
   14.7410    8.3270   12.4700 C   0  0  0  0  0  0  0  0  0  0  0  0
   14.7180    9.3210   11.5050 C   0  0  0  0  0  0  0  0  0  0  0  0
   14.6060    7.0010   12.0650 C   0  0  0  0  0  0  0  0  0  0  0  0
   14.5490    9.0090   10.1690 C   0  0  0  0  0  0  0  0  0  0  0  0
   14.4330    6.6820   10.7260 C   0  0  0  0  0  0  0  0  0  0  0  0
   14.4080    7.6860    9.7790 C   0  0  0  0  0  0  0  0  0  0  0  0
   13.8800    9.3010   15.5630 H   0  0  0  0  0  0  0  0  0  0  0  0
   15.5410    9.4270   13.9670 H   0  0  0  0  0  0  0  0  0  0  0  0
   15.3170    7.9040   14.3620 H   0  0  0  0  0  0  0  0  0  0  0  0
   14.8170   10.2100   11.7600 H   0  0  0  0  0  0  0  0  0  0  0  0
   14.6310    6.3220   12.7000 H   0  0  0  0  0  0  0  0  0  0  0  0
   14.5300    9.6860    9.5320 H   0  0  0  0  0  0  0  0  0  0  0  0
   14.3330    5.7940   10.4680 H   0  0  0  0  0  0  0  0  0  0  0  0
   14.2970    7.4750    8.8800 H   0  0  0  0  0  0  0  0  0  0  0  0
   13.3510   11.4750   14.4520 N   0  0  0  0  0  0  0  0  0  0  0  0
   12.7780   12.6900   13.8650 C   0  0  2  0  0  0  0  0  0  0  0  0
   13.3750   12.9940   12.4980 C   0  0  0  0  0  0  0  0  0  0  0  0
   14.4540   12.5230   12.1230 O   0  0  0  0  0  0  0  0  0  0  0  0
   13.1350   13.7720   14.8870 C   0  0  0  0  0  0  0  0  0  0  0  0
   14.4220   13.3050   15.5030 C   0  0  0  0  0  0  0  0  0  0  0  0
   14.3430   11.7790   15.5050 C   0  0  0  0  0  0  0  0  0  0  0  0
   11.8130   12.6220   13.7860 H   0  0  0  0  0  0  0  0  0  0  0  0
   13.2530   14.6250   14.4390 H   0  0  0  0  0  0  0  0  0  0  0  0
   12.4350   13.8420   15.5540 H   0  0  0  0  0  0  0  0  0  0  0  0
   15.1720   13.6110   14.9700 H   0  0  0  0  0  0  0  0  0  0  0  0
   14.4960   13.6480   16.4080 H   0  0  0  0  0  0  0  0  0  0  0  0
   15.2050   11.3900   15.2880 H   0  0  0  0  0  0  0  0  0  0  0  0
   14.0400   11.4520   16.3670 H   0  0  0  0  0  0  0  0  0  0  0  0
   12.6470   13.8110   11.7480 N   0  0  0  0  0  0  0  0  0  0  0  0
   13.0640   14.1880   10.4280 C   0  0  2  0  0  0  0  0  0  0  0  0
   14.1740   15.2390   10.4030 C   0  0  0  0  0  0  0  0  0  0  0  0
   14.1110   16.2410   11.1190 O   0  0  0  0  0  0  0  0  0  0  0  0
   11.8730   14.7210    9.6340 C   0  0  0  0  0  0  0  0  0  0  0  0
   11.8990   14.1590   11.9940 H   0  0  0  0  0  0  0  0  0  0  0  0
   13.4200   13.3860   10.0140 H   0  0  0  0  0  0  0  0  0  0  0  0
   12.1720   14.9690    8.7450 H   0  0  0  0  0  0  0  0  0  0  0  0
   11.1970   14.0280    9.5750 H   0  0  0  0  0  0  0  0  0  0  0  0
   11.5120   15.4970   10.0900 H   0  0  0  0  0  0  0  0  0  0  0  0
   15.1640   14.9860    9.5470 N   0  0  0  0  0  0  0  0  0  0  0  0
   16.2310   15.9340    9.2260 C   0  0  1  0  0  0  0  0  0  0  0  0
   17.5470   15.5990    9.9580 C   0  0  1  0  0  0  0  0  0  0  0  0
   17.3920   15.8510   11.4720 C   0  0  0  0  0  0  0  0  0  0  0  0
   17.7760   14.2290    9.6440 O   0  0  0  0  0  0  0  0  0  0  0  0
   19.2500   13.6510    9.9850 P   0  0  0  0  0  0  0  0  0  0  0  0
   19.3060   12.4250    9.0750 O   0  0  0  0  0  0  0  0  0  0  0  0
   19.2650   13.2340   11.4920 O   0  0  0  0  0  0  0  0  0  0  0  0
   20.3530   14.6850    9.6160 O   0  0  0  0  0  0  0  0  0  0  0  0
   16.4370   15.9150    7.7230 C   0  0  0  0  0  0  0  0  0  0  0  0
   16.0570   14.9430    7.0350 O   0  0  0  0  0  0  0  0  0  0  0  0
   17.0100   16.9910    7.1990 N   0  0  0  0  0  0  0  0  0  0  0  0
   17.2750   17.0530    5.7590 C   0  0  2  0  0  0  0  0  0  0  0  0
   18.7230   17.3870    5.4530 C   0  0  0  0  0  0  0  0  0  0  0  0
   19.4960   17.8300    6.3180 O   0  0  0  0  0  0  0  0  0  0  0  0
   16.3730   18.0770    5.0460 C   0  0  0  0  0  0  0  0  0  0  0  0
   14.9590   17.6860    5.1920 C   0  0  0  0  0  0  0  0  0  0  0  0
   16.6300   19.4780    5.5620 C   0  0  0  0  0  0  0  0  0  0  0  0
   19.1450   17.2220    4.2750 O   0  0  0  0  0  0  0  0  0  0  0  0
   17.2510   17.6860    7.6440 H   0  0  0  0  0  0  0  0  0  0  0  0
   17.0850   16.1660    5.4180 H   0  0  0  0  0  0  0  0  0  0  0  0
   16.5810   18.0880    4.0980 H   0  0  0  0  0  0  0  0  0  0  0  0
   14.9150   16.8180    5.6240 H   0  0  0  0  0  0  0  0  0  0  0  0
   14.5020   18.3490    5.7320 H   0  0  0  0  0  0  0  0  0  0  0  0
   14.5520   17.6380    4.3120 H   0  0  0  0  0  0  0  0  0  0  0  0
   17.5560   19.7110    5.3950 H   0  0  0  0  0  0  0  0  0  0  0  0
   16.0440   20.0970    5.1000 H   0  0  0  0  0  0  0  0  0  0  0  0
   16.4500   19.5010    6.5150 H   0  0  0  0  0  0  0  0  0  0  0  0
  2  1  1  0
  3  2  1  0
  4  3  2  0
  5  2  1  0
  6  5  1  0
  7  6  2  0
  8  6  1  0
  9  7  1  0
 10  8  2  0
 11 10  1  0
 11  9  2  0
  2 12  1  1
 13  5  1  0
 14  5  1  0
 15  7  1  0
 16  8  1  0
 17  9  1  0
 18 10  1  0
 19 11  1  0
 20  3  1  0
 21 20  1  0
 22 21  1  0
 23 22  2  0
 24 21  1  0
 25 24  1  0
 26 25  1  0
 26 20  1  0
 21 27  1  6
 28 24  1  0
 29 24  1  0
 30 25  1  0
 31 25  1  0
 32 26  1  0
 33 26  1  0
 34 22  1  0
 35 34  1  0
 36 35  1  0
 37 36  2  0
 38 35  1  0
 39 34  1  0
 35 40  1  6
 41 38  1  0
 42 38  1  0
 43 38  1  0
 44 36  1  0
 45 44  1  6
 46 45  1  0
 46 47  1  1
 48 46  1  0
 49 48  1  0
 50 49  1  0
 51 49  1  0
 52 49  1  0
 53 45  1  0
 54 53  1  0
 55 53  1  0
 56 55  1  0
 57 56  1  0
 58 57  2  0
 59 56  1  0
 60 59  1  0
 61 59  1  0
 62 57  1  0
 63 55  1  0
 56 64  1  6
 65 59  1  0
 66 60  1  0
 67 60  1  0
 68 60  1  0
 69 61  1  0
 70 61  1  0
 71 61  1  0
M  END
$$$$
4XI3
     RDKit          3D

 35 40  0  0  0  0  0  0  0  0999 V2000
  -14.0780  -10.2870  -35.1040 C   0  0  1  0  0  0  0  0  0  0  0  0
  -12.8070  -10.4270  -35.8680 C   0  0  0  0  0  0  0  0  0  0  0  0
  -11.3390  -10.7250  -35.3830 C   0  0  0  0  0  0  0  0  0  0  0  0
  -11.4360  -11.9650  -34.6660 C   0  0  0  0  0  0  0  0  0  0  0  0
  -12.4310  -11.3420  -33.5210 C   0  0  0  0  0  0  0  0  0  0  0  0
  -13.8470  -10.6360  -33.4300 C   0  0  1  0  0  0  0  0  0  0  0  0
  -14.2500   -9.3360  -34.1040 N   0  0  0  0  0  0  0  0  0  0  0  0
  -15.6480   -9.3590  -33.5420 C   0  0  0  0  0  0  0  0  0  0  0  0
  -16.4320  -10.6040  -32.9820 C   0  0  0  0  0  0  0  0  0  0  0  0
  -15.9080  -11.2960  -31.8310 O   0  0  0  0  0  0  0  0  0  0  0  0
  -16.2290  -10.7920  -30.6190 C   0  0  0  0  0  0  0  0  0  0  0  0
  -15.6890  -11.4100  -29.5010 C   0  0  0  0  0  0  0  0  0  0  0  0
  -15.9720  -10.9220  -28.2370 C   0  0  0  0  0  0  0  0  0  0  0  0
  -17.0310   -9.6650  -30.4840 C   0  0  0  0  0  0  0  0  0  0  0  0
  -17.3200   -9.1810  -29.2170 C   0  0  0  0  0  0  0  0  0  0  0  0
  -16.7890   -9.8100  -28.0980 C   0  0  0  0  0  0  0  0  0  0  0  0
  -17.0740   -9.3070  -26.8410 C   0  0  0  0  0  0  0  0  0  0  0  0
  -16.6170  -10.2360  -25.7560 N   0  0  0  0  0  0  0  0  0  0  0  0
  -15.4320   -9.9510  -25.2090 C   0  0  0  0  0  0  0  0  0  0  0  0
  -14.5200   -9.0300  -25.5230 C   0  0  0  0  0  0  0  0  0  0  0  0
  -13.3150   -8.9620  -24.8330 C   0  0  0  0  0  0  0  0  0  0  0  0
  -13.0910   -9.8750  -23.8140 C   0  0  0  0  0  0  0  0  0  0  0  0
  -11.9300   -9.8550  -23.1030 O   0  0  0  0  0  0  0  0  0  0  0  0
  -14.0750  -10.8120  -23.5310 C   0  0  0  0  0  0  0  0  0  0  0  0
  -15.2080  -10.8230  -24.2320 C   0  0  0  0  0  0  0  0  0  0  0  0
  -16.2730  -11.6060  -24.1520 C   0  0  1  0  0  0  0  0  0  0  0  0
  -16.3110  -12.7270  -23.1020 C   0  0  0  0  0  0  0  0  0  0  0  0
  -17.2170  -11.1910  -25.0210 C   0  0  2  0  0  0  0  0  0  0  0  0
  -18.3790  -11.8220  -25.3160 C   0  0  1  0  0  0  0  0  0  0  0  0
  -18.7850  -11.9180  -26.6460 C   0  0  0  0  0  0  0  0  0  0  0  0
  -19.9150  -12.6140  -27.0430 C   0  0  0  0  0  0  0  0  0  0  0  0
  -20.6510  -13.3170  -26.1080 C   0  0  0  0  0  0  0  0  0  0  0  0
  -21.7550  -14.0030  -26.4920 O   0  0  0  0  0  0  0  0  0  0  0  0
  -20.2460  -13.3080  -24.7840 C   0  0  0  0  0  0  0  0  0  0  0  0
  -19.0930  -12.6230  -24.4240 C   0  0  0  0  0  0  0  0  0  0  0  0
  1  2  1  6
  3  2  1  0
  4  3  1  0
  5  4  1  0
  6  5  1  6
  6  1  1  0
  7  6  1  0
  7  1  1  0
  8  7  1  0
  9  8  1  0
 10  9  1  0
 11 10  1  0
 12 11  1  0
 13 12  1  0
 14 11  1  0
 15 14  1  0
 16 15  1  0
 16 13  1  0
 17 16  1  0
 18 17  1  0
 19 18  1  0
 20 19  1  0
 21 20  1  0
 22 21  1  0
 23 22  1  0
 24 22  1  0
 25 24  1  0
 25 19  1  0
 26 25  1  0
 26 27  1  1
 28 18  1  6
 28 26  1  0
 29 28  1  0
 29 30  1  6
 31 30  1  0
 32 31  1  0
 33 32  1  0
 34 32  1  0
 35 34  1  0
 35 29  1  0
M  END
$$$$
8BZD
     RDKit          3D

 76 77  0  0  0  0  0  0  0  0999 V2000
   13.1270    7.5320   15.0560 N   0  0  0  0  0  0  0  0  0  0  0  0
   13.9590    8.7320   15.0060 C   0  0  2  0  0  0  0  0  0  0  0  0
   13.1750    9.9020   14.3920 C   0  0  0  0  0  0  0  0  0  0  0  0
   12.3030    9.7000   13.5420 O   0  0  0  0  0  0  0  0  0  0  0  0
   15.2490    8.4550   14.2120 C   0  0  0  0  0  0  0  0  0  0  0  0
   15.0210    7.8880   12.8200 C   0  0  0  0  0  0  0  0  0  0  0  0
   14.6890    8.7200   11.7560 C   0  0  0  0  0  0  0  0  0  0  0  0
   15.1490    6.5280   12.5770 C   0  0  0  0  0  0  0  0  0  0  0  0
   14.4860    8.2040   10.4830 C   0  0  0  0  0  0  0  0  0  0  0  0
   14.9390    6.0050   11.3040 C   0  0  0  0  0  0  0  0  0  0  0  0
   14.6120    6.8460   10.2560 C   0  0  0  0  0  0  0  0  0  0  0  0
   14.2220    8.9890   15.9040 H   0  0  0  0  0  0  0  0  0  0  0  0
   15.7370    9.2880   14.1130 H   0  0  0  0  0  0  0  0  0  0  0  0
   15.7850    7.8140   14.7050 H   0  0  0  0  0  0  0  0  0  0  0  0
   14.6020    9.6350   11.8990 H   0  0  0  0  0  0  0  0  0  0  0  0
   15.3780    5.9580   13.2750 H   0  0  0  0  0  0  0  0  0  0  0  0
   14.2630    8.7730    9.7820 H   0  0  0  0  0  0  0  0  0  0  0  0
   15.0190    5.0900   11.1590 H   0  0  0  0  0  0  0  0  0  0  0  0
   14.4790    6.5010    9.4030 H   0  0  0  0  0  0  0  0  0  0  0  0
   13.4760   11.1230   14.8240 N   0  0  0  0  0  0  0  0  0  0  0  0
   12.8530   12.3000   14.2150 C   0  0  2  0  0  0  0  0  0  0  0  0
   13.4790   12.5850   12.8550 C   0  0  0  0  0  0  0  0  0  0  0  0
   14.5570   12.0960   12.5160 O   0  0  0  0  0  0  0  0  0  0  0  0
   13.1600   13.4180   15.2210 C   0  0  0  0  0  0  0  0  0  0  0  0
   14.4700   13.0180   15.8130 C   0  0  0  0  0  0  0  0  0  0  0  0
   14.4750   11.5000   15.8410 C   0  0  0  0  0  0  0  0  0  0  0  0
   11.8920   12.2000   14.1280 H   0  0  0  0  0  0  0  0  0  0  0  0
   13.2280   14.2700   14.7640 H   0  0  0  0  0  0  0  0  0  0  0  0
   12.4670   13.4580   15.8980 H   0  0  0  0  0  0  0  0  0  0  0  0
   15.1940   13.3530   15.2600 H   0  0  0  0  0  0  0  0  0  0  0  0
   14.5450   13.3770   16.7110 H   0  0  0  0  0  0  0  0  0  0  0  0
   15.3510   11.1550   15.6050 H   0  0  0  0  0  0  0  0  0  0  0  0
   14.2140   11.1720   16.7160 H   0  0  0  0  0  0  0  0  0  0  0  0
   12.7940   13.4230   12.0870 N   0  0  0  0  0  0  0  0  0  0  0  0
   13.2000   13.7050   10.7260 C   0  0  2  0  0  0  0  0  0  0  0  0
   14.2470   14.8110   10.6340 C   0  0  0  0  0  0  0  0  0  0  0  0
   14.1340   15.8420   11.3000 O   0  0  0  0  0  0  0  0  0  0  0  0
   11.9840   14.0750    9.8860 C   0  0  0  0  0  0  0  0  0  0  0  0
   12.0850   13.8410   12.3370 H   0  0  0  0  0  0  0  0  0  0  0  0
   13.6080   12.9000   10.3690 H   0  0  0  0  0  0  0  0  0  0  0  0
   12.2720   14.2610    8.9790 H   0  0  0  0  0  0  0  0  0  0  0  0
   11.3600   13.3330    9.8900 H   0  0  0  0  0  0  0  0  0  0  0  0
   11.5650   14.8620   10.2680 H   0  0  0  0  0  0  0  0  0  0  0  0
   15.2430   14.5960    9.7720 N   0  0  0  0  0  0  0  0  0  0  0  0
   16.2610   15.5980    9.4220 C   0  0  1  0  0  0  0  0  0  0  0  0
   17.6200   15.2790   10.1190 C   0  0  1  0  0  0  0  0  0  0  0  0
   17.5040   15.4630   11.6350 C   0  0  2  0  0  0  0  0  0  0  0  0
   17.9090   13.9370    9.6910 O   0  0  0  0  0  0  0  0  0  0  0  0
   19.3660   13.3220   10.0650 P   0  0  0  0  0  0  0  0  0  0  0  0
   19.4310   12.0120    9.1590 O   0  0  0  0  0  0  0  0  0  0  0  0
   19.4090   12.9320   11.5080 O   0  0  0  0  0  0  0  0  0  0  0  0
   20.5010   14.3560    9.6570 O   0  0  0  0  0  0  0  0  0  0  0  0
   16.3860   15.6210    7.8970 C   0  0  0  0  0  0  0  0  0  0  0  0
   15.8760   14.7300    7.2000 O   0  0  0  0  0  0  0  0  0  0  0  0
   16.0110   16.4900    9.7410 H   0  0  0  0  0  0  0  0  0  0  0  0
   18.4380   15.9460    9.8480 H   0  0  0  0  0  0  0  0  0  0  0  0
   18.4670   15.2570   12.1020 H   0  0  0  0  0  0  0  0  0  0  0  0
   16.7550   14.7760   12.0290 H   0  0  0  0  0  0  0  0  0  0  0  0
   17.2070   16.4890   11.8550 H   0  0  0  0  0  0  0  0  0  0  0  0
   17.0140   16.6630    7.3680 N   0  0  0  0  0  0  0  0  0  0  0  0
   17.1720   16.8400    5.9380 C   0  0  2  0  0  0  0  0  0  0  0  0
   18.5970   17.2560    5.5900 C   0  0  0  0  0  0  0  0  0  0  0  0
   19.3590   17.6790    6.4860 O   0  0  0  0  0  0  0  0  0  0  0  0
   16.1220   17.8530    5.4230 C   0  0  0  0  0  0  0  0  0  0  0  0
   16.4930   19.2710    5.8500 C   0  0  0  0  0  0  0  0  0  0  0  0
   15.9300   17.7300    3.9260 C   0  0  0  0  0  0  0  0  0  0  0  0
   19.0230   17.1660    4.4250 O   0  0  0  0  0  0  0  0  0  0  0  0
   17.3650   17.2960    7.8310 H   0  0  0  0  0  0  0  0  0  0  0  0
   17.0240   15.9960    5.4840 H   0  0  0  0  0  0  0  0  0  0  0  0
   15.2620   17.6520    5.8250 H   0  0  0  0  0  0  0  0  0  0  0  0
   17.2310   19.5820    5.3040 H   0  0  0  0  0  0  0  0  0  0  0  0
   15.7240   19.8490    5.7280 H   0  0  0  0  0  0  0  0  0  0  0  0
   16.7540   19.2610    6.7840 H   0  0  0  0  0  0  0  0  0  0  0  0
   16.5070   17.0250    3.5910 H   0  0  0  0  0  0  0  0  0  0  0  0
   15.0030   17.5130    3.7430 H   0  0  0  0  0  0  0  0  0  0  0  0
   16.1620   18.5740    3.5070 H   0  0  0  0  0  0  0  0  0  0  0  0
  2  1  1  0
  3  2  1  0
  4  3  2  0
  5  2  1  0
  6  5  1  0
  7  6  2  0
  8  6  1  0
  9  7  1  0
 10  8  2  0
 11  9  2  0
 11 10  1  0
  2 12  1  1
 13  5  1  0
 14  5  1  0
 15  7  1  0
 16  8  1  0
 17  9  1  0
 18 10  1  0
 19 11  1  0
 20  3  1  0
 21 20  1  0
 22 21  1  0
 23 22  2  0
 24 21  1  0
 25 24  1  0
 26 25  1  0
 26 20  1  0
 21 27  1  6
 28 24  1  0
 29 24  1  0
 30 25  1  0
 31 25  1  0
 32 26  1  0
 33 26  1  0
 34 22  1  0
 35 34  1  0
 36 35  1  0
 37 36  2  0
 38 35  1  0
 39 34  1  0
 35 40  1  6
 41 38  1  0
 42 38  1  0
 43 38  1  0
 44 36  1  0
 45 44  1  0
 46 45  1  0
 47 46  1  0
 48 46  1  0
 49 48  1  0
 50 49  1  0
 51 49  1  0
 52 49  1  0
 53 45  1  0
 54 53  1  0
 45 55  1  1
 46 56  1  6
 47 57  1  1
 58 47  1  0
 59 47  1  0
 60 53  1  0
 61 60  1  0
 62 61  1  0
 63 62  2  0
 64 61  1  0
 65 64  1  0
 66 64  1  0
 67 62  1  0
 68 60  1  0
 61 69  1  6
 70 64  1  0
 71 65  1  0
 72 65  1  0
 73 65  1  0
 74 66  1  0
 75 66  1  0
 76 66  1  0
M  END
$$$$
1ERR
     RDKit          3D

 34 38  0  0  0  0  0  0  0  0999 V2000
   69.5710   36.2230   71.9170 C   0  0  0  0  0  0  0  0  0  0  0  0
   69.8160   37.4480   71.3520 C   0  0  0  0  0  0  0  0  0  0  0  0
   69.0830   37.9330   70.3050 C   0  0  0  0  0  0  0  0  0  0  0  0
   69.4100   39.1860   69.8500 O   0  0  0  0  0  0  0  0  0  0  0  0
   68.0290   37.1670   69.7940 C   0  0  0  0  0  0  0  0  0  0  0  0
   67.7650   35.9560   70.3850 C   0  0  1  0  0  0  0  0  0  0  0  0
   66.6380   34.8150   69.9860 S   0  0  0  0  0  0  0  0  0  0  0  0
   67.0010   33.6910   71.1920 C   0  0  1  0  0  0  0  0  0  0  0  0
   66.3470   32.3560   71.3010 C   0  0  1  0  0  0  0  0  0  0  0  0
   66.0870   31.7270   70.0990 C   0  0  0  0  0  0  0  0  0  0  0  0
   65.5600   30.4460   70.1280 C   0  0  0  0  0  0  0  0  0  0  0  0
   65.2590   29.8170   71.3200 C   0  0  1  0  0  0  0  0  0  0  0  0
   64.7350   28.5250   71.2490 O   0  0  0  0  0  0  0  0  0  0  0  0
   65.5620   30.4280   72.5190 C   0  0  0  0  0  0  0  0  0  0  0  0
   66.1060   31.7060   72.4800 C   0  0  0  0  0  0  0  0  0  0  0  0
   68.5560   35.4680   71.4640 C   0  0  0  0  0  0  0  0  0  0  0  0
   68.1280   34.1500   71.9060 C   0  0  0  0  0  0  0  0  0  0  0  0
   68.7710   33.4630   72.9180 C   0  0  0  0  0  0  0  0  0  0  0  0
   69.3680   32.4120   72.6530 O   0  0  0  0  0  0  0  0  0  0  0  0
   68.7680   33.9170   74.3130 C   0  0  0  0  0  0  0  0  0  0  0  0
   69.6210   33.3510   75.2390 C   0  0  0  0  0  0  0  0  0  0  0  0
   69.6330   33.7450   76.5630 C   0  0  0  0  0  0  0  0  0  0  0  0
   68.7330   34.7250   76.9780 C   0  0  0  0  0  0  0  0  0  0  0  0
   67.8790   35.3050   76.0570 C   0  0  0  0  0  0  0  0  0  0  0  0
   67.9070   34.9100   74.7300 C   0  0  0  0  0  0  0  0  0  0  0  0
   68.5550   35.2590   78.2200 O   0  0  0  0  0  0  0  0  0  0  0  0
   69.4610   34.8370   79.2280 C   0  0  0  0  0  0  0  0  0  0  0  0
   69.3110   35.6920   80.4580 C   0  0  0  0  0  0  0  0  0  0  0  0
   69.0230   37.1100   80.5570 N   0  0  0  0  0  0  0  0  0  0  0  0
   68.7200   37.4370   81.9650 C   0  0  0  0  0  0  0  0  0  0  0  0
   68.5440   38.9460   82.2290 C   0  0  0  0  0  0  0  0  0  0  0  0
   67.3380   39.4040   81.3930 C   0  0  0  0  0  0  0  0  0  0  0  0
   67.8040   39.1970   79.9190 C   0  0  0  0  0  0  0  0  0  0  0  0
   67.9600   37.6810   79.7070 C   0  0  0  0  0  0  0  0  0  0  0  0
  2  1  1  0
  3  2  1  0
  4  3  1  0
  5  3  1  0
  6  5  1  6
  7  6  1  0
  8  7  1  6
  9  8  1  0
  9 10  1  6
 11 10  1  0
 12 11  1  0
 12 13  1  6
 14 12  1  0
 15 14  1  0
 15  9  1  0
 16  6  1  0
 16  1  1  0
 17 16  1  0
 17  8  1  0
 18 17  1  0
 19 18  1  0
 20 18  1  0
 21 20  1  0
 22 21  1  0
 23 22  1  0
 24 23  1  0
 25 24  1  0
 25 20  1  0
 26 23  1  0
 27 26  1  0
 28 27  1  0
 29 28  1  0
 30 29  1  0
 31 30  1  0
 32 31  1  0
 33 32  1  0
 34 29  1  0
 34 33  1  0
M  END
$$$$
1ERE
     RDKit          3D

 20 23  0  0  0  0  0  0  0  0999 V2000
    7.1020   47.1420  129.4860 C   0  0  0  0  0  0  0  0  0  0  0  0
    6.5600   48.2350  128.8130 C   0  0  0  0  0  0  0  0  0  0  0  0
    7.0140   49.4700  129.1690 C   0  0  0  0  0  0  0  0  0  0  0  0
    6.4960   50.5650  128.5160 O   0  0  0  0  0  0  0  0  0  0  0  0
    7.9670   49.7080  130.1610 C   0  0  0  0  0  0  0  0  0  0  0  0
    8.4910   48.5860  130.8260 C   0  0  1  0  0  0  0  0  0  0  0  0
    9.2580   48.8540  132.0910 C   0  0  0  0  0  0  0  0  0  0  0  0
    9.6040   47.5900  132.8650 C   0  0  0  0  0  0  0  0  0  0  0  0
    9.9070   46.4370  131.9130 C   0  0  2  0  0  0  0  0  0  0  0  0
    8.6090   46.1010  131.1520 C   0  0  1  0  0  0  0  0  0  0  0  0
    8.0610   47.3120  130.4770 C   0  0  0  0  0  0  0  0  0  0  0  0
    8.8490   44.9590  130.1640 C   0  0  0  0  0  0  0  0  0  0  0  0
    9.2400   43.6710  130.9520 C   0  0  0  0  0  0  0  0  0  0  0  0
   10.5000   44.0090  131.7360 C   0  0  1  0  0  0  0  0  0  0  0  0
   10.2590   45.2020  132.6850 C   0  0  1  0  0  0  0  0  0  0  0  0
   11.6130   45.1940  133.4060 C   0  0  0  0  0  0  0  0  0  0  0  0
   11.6390   43.7080  133.9160 C   0  0  0  0  0  0  0  0  0  0  0  0
   10.9140   42.9670  132.7780 C   0  0  2  0  0  0  0  0  0  0  0  0
   11.6950   41.8830  132.2930 O   0  0  0  0  0  0  0  0  0  0  0  0
   11.6410   44.2340  130.7550 C   0  0  0  0  0  0  0  0  0  0  0  0
  2  1  1  0
  3  2  1  0
  4  3  1  0
  5  3  1  0
  6  5  1  1
  7  6  1  0
  8  7  1  0
  9  8  1  1
 10  9  1  0
 11  1  1  0
 11 10  1  0
 11  6  1  0
 10 12  1  6
 13 12  1  0
 14 13  1  0
 15 14  1  0
 15  9  1  0
 15 16  1  6
 17 16  1  0
 18 14  1  0
 18 17  1  0
 18 19  1  6
 14 20  1  6
M  END
$$$$
3OS9
     RDKit          3D

 61 60  0  0  0  0  0  0  0  0999 V2000
   -3.5920   -6.2300  -47.0210 N   0  0  0  0  0  0  0  0  0  0  0  0
   -2.6170   -5.1690  -47.2400 C   0  0  2  0  0  0  0  0  0  0  0  0
   -1.2570   -5.5390  -46.6590 C   0  0  0  0  0  0  0  0  0  0  0  0
   -0.9240   -6.7180  -46.5470 O   0  0  0  0  0  0  0  0  0  0  0  0
   -3.1130   -3.8600  -46.6460 C   0  0  0  0  0  0  0  0  0  0  0  0
   -0.4860   -4.5180  -46.2890 N   0  0  0  0  0  0  0  0  0  0  0  0
    0.8650   -4.6870  -45.7520 C   0  0  2  0  0  0  0  0  0  0  0  0
    1.9130   -4.7630  -46.8610 C   0  0  0  0  0  0  0  0  0  0  0  0
    1.5930   -5.0490  -48.0150 O   0  0  0  0  0  0  0  0  0  0  0  0
    0.9870   -5.9190  -44.8290 C   0  0  0  0  0  0  0  0  0  0  0  0
    3.1650   -4.5030  -46.4970 N   0  0  0  0  0  0  0  0  0  0  0  0
    4.2610   -4.4600  -47.4610 C   0  0  2  0  0  0  0  0  0  0  0  0
    4.4690   -5.7970  -48.1650 C   0  0  0  0  0  0  0  0  0  0  0  0
    4.5570   -5.8550  -49.3910 O   0  0  0  0  0  0  0  0  0  0  0  0
    5.5570   -4.0270  -46.7720 C   0  0  0  0  0  0  0  0  0  0  0  0
    4.5510   -6.8670  -47.3810 N   0  0  0  0  0  0  0  0  0  0  0  0
    4.8010   -8.1970  -47.9250 C   0  0  2  0  0  0  0  0  0  0  0  0
    3.7160   -8.6200  -48.9100 C   0  0  0  0  0  0  0  0  0  0  0  0
    3.9730   -9.3920  -49.8340 O   0  0  0  0  0  0  0  0  0  0  0  0
    4.9180   -9.2240  -46.7960 C   0  0  0  0  0  0  0  0  0  0  0  0
    2.5050   -8.1090  -48.7120 N   0  0  0  0  0  0  0  0  0  0  0  0
    1.3740   -8.4750  -49.5570 C   0  0  2  0  0  0  0  0  0  0  0  0
    1.4470   -7.8180  -50.9310 C   0  0  0  0  0  0  0  0  0  0  0  0
    1.1090   -8.4370  -51.9410 O   0  0  0  0  0  0  0  0  0  0  0  0
    0.0520   -8.1150  -48.8770 C   0  0  0  0  0  0  0  0  0  0  0  0
   -1.0540   -8.4400  -49.7000 O   0  0  0  0  0  0  0  0  0  0  0  0
    1.8870   -6.5640  -50.9670 N   0  0  0  0  0  0  0  0  0  0  0  0
    1.9760   -5.8270  -52.2220 C   0  0  2  0  0  0  0  0  0  0  0  0
    3.1460   -6.2930  -53.0800 C   0  0  0  0  0  0  0  0  0  0  0  0
    3.1370   -6.1260  -54.3000 O   0  0  0  0  0  0  0  0  0  0  0  0
    2.0690   -4.3210  -51.9680 C   0  0  0  0  0  0  0  0  0  0  0  0
    0.8070   -3.6720  -51.3980 C   0  0  0  0  0  0  0  0  0  0  0  0
    0.8730   -2.1610  -51.5530 C   0  0  0  0  0  0  0  0  0  0  0  0
   -0.4290   -4.2270  -52.0880 C   0  0  0  0  0  0  0  0  0  0  0  0
    4.1550   -6.8750  -52.4400 N   0  0  0  0  0  0  0  0  0  0  0  0
    5.2870   -7.4370  -53.1660 C   0  0  2  0  0  0  0  0  0  0  0  0
    4.8610   -8.7090  -53.8890 C   0  0  0  0  0  0  0  0  0  0  0  0
    5.3780   -9.0320  -54.9580 O   0  0  0  0  0  0  0  0  0  0  0  0
    6.4490   -7.7310  -52.2160 C   0  0  0  0  0  0  0  0  0  0  0  0
    7.0630   -6.4920  -51.5870 C   0  0  0  0  0  0  0  0  0  0  0  0
    8.2190   -6.8190  -50.6620 C   0  0  0  0  0  0  0  0  0  0  0  0
    8.4940   -8.0200  -50.4520 O   0  0  0  0  0  0  0  0  0  0  0  0
    8.8530   -5.8750  -50.1440 O   0  0  0  0  0  0  0  0  0  0  0  0
    3.9110   -9.4240  -53.2950 N   0  0  0  0  0  0  0  0  0  0  0  0
    3.3680  -10.6330  -53.8990 C   0  0  2  0  0  0  0  0  0  0  0  0
    2.5200  -10.2820  -55.1180 C   0  0  0  0  0  0  0  0  0  0  0  0
    2.5990  -10.9450  -56.1510 O   0  0  0  0  0  0  0  0  0  0  0  0
    2.5370  -11.4140  -52.8800 C   0  0  0  0  0  0  0  0  0  0  0  0
    3.3230  -11.8820  -51.6630 C   0  0  0  0  0  0  0  0  0  0  0  0
    4.3180  -12.9790  -51.9940 C   0  0  0  0  0  0  0  0  0  0  0  0
    3.8840  -14.1300  -52.2150 O   0  0  0  0  0  0  0  0  0  0  0  0
    5.5340  -12.6940  -52.0280 O   0  0  0  0  0  0  0  0  0  0  0  0
    1.7110   -9.2340  -54.9900 N   0  0  0  0  0  0  0  0  0  0  0  0
    0.8880   -8.7610  -56.0980 C   0  0  2  0  0  0  0  0  0  0  0  0
    1.7510   -8.3690  -57.2920 C   0  0  0  0  0  0  0  0  0  0  0  0
    1.5550   -8.8680  -58.4020 O   0  0  0  0  0  0  0  0  0  0  0  0
    0.0290   -7.5680  -55.6710 C   0  0  0  0  0  0  0  0  0  0  0  0
   -1.1280   -7.9100  -54.7460 C   0  0  0  0  0  0  0  0  0  0  0  0
   -2.4080   -7.2390  -55.2250 C   0  0  0  0  0  0  0  0  0  0  0  0
   -3.4500   -7.1580  -54.1230 C   0  0  0  0  0  0  0  0  0  0  0  0
   -3.0620   -6.1770  -53.0720 N   0  0  0  0  0  0  0  0  0  0  0  0
  2  1  1  0
  3  2  1  0
  4  3  2  0
  2  5  1  1
  6  3  1  0
  7  6  1  0
  8  7  1  0
  9  8  2  0
  7 10  1  6
 11  8  1  0
 12 11  1  0
 13 12  1  0
 14 13  2  0
 12 15  1  1
 16 13  1  0
 17 16  1  0
 18 17  1  0
 19 18  2  0
 17 20  1  1
 21 18  1  0
 22 21  1  0
 23 22  1  0
 24 23  2  0
 22 25  1  1
 26 25  1  0
 27 23  1  0
 28 27  1  0
 29 28  1  0
 30 29  2  0
 28 31  1  1
 32 31  1  0
 33 32  1  0
 34 32  1  0
 35 29  1  0
 36 35  1  0
 37 36  1  0
 38 37  2  0
 36 39  1  1
 40 39  1  0
 41 40  1  0
 42 41  2  0
 43 41  1  0
 44 37  1  0
 45 44  1  0
 46 45  1  0
 47 46  2  0
 45 48  1  1
 49 48  1  0
 50 49  1  0
 51 50  2  0
 52 50  1  0
 53 46  1  0
 54 53  1  0
 55 54  1  0
 56 55  2  0
 54 57  1  1
 58 57  1  0
 59 58  1  0
 60 59  1  0
 61 60  1  0
M  END
$$$$
4MG7
     RDKit          3D

 76 76  0  0  0  0  0  0  0  0999 V2000
   -0.0150  -26.0240   21.4080 N   0  0  0  0  0  0  0  0  0  0  0  0
   -0.2980  -24.6010   21.2590 C   0  0  2  0  0  0  0  0  0  0  0  0
    0.5700  -23.9680   20.1770 C   0  0  0  0  0  0  0  0  0  0  0  0
    1.6490  -24.4670   19.8640 O   0  0  0  0  0  0  0  0  0  0  0  0
   -0.0680  -23.8670   22.5810 C   0  0  0  0  0  0  0  0  0  0  0  0
   -0.9300  -24.3410   23.7330 C   0  0  0  0  0  0  0  0  0  0  0  0
   -0.5290  -23.6330   25.0180 C   0  0  0  0  0  0  0  0  0  0  0  0
   -1.2550  -24.2010   26.2220 C   0  0  0  0  0  0  0  0  0  0  0  0
   -0.7610  -23.5910   27.4880 N   0  0  0  0  0  0  0  0  0  0  0  0
    0.0930  -22.8630   19.6150 N   0  0  0  0  0  0  0  0  0  0  0  0
    0.8550  -22.1110   18.6280 C   0  0  2  0  0  0  0  0  0  0  0  0
    2.0680  -21.4720   19.2880 C   0  0  0  0  0  0  0  0  0  0  0  0
    3.1880  -21.5680   18.7830 O   0  0  0  0  0  0  0  0  0  0  0  0
    0.0030  -21.0060   17.9800 C   0  0  2  0  0  0  0  0  0  0  0  0
   -1.2760  -21.5990   17.3830 C   0  0  0  0  0  0  0  0  0  0  0  0
    0.8030  -20.2710   16.9170 C   0  0  0  0  0  0  0  0  0  0  0  0
   -2.1970  -20.5690   16.7590 C   0  0  0  0  0  0  0  0  0  0  0  0
    1.8350  -20.8160   20.4200 N   0  0  0  0  0  0  0  0  0  0  0  0
    2.9050  -20.1870   21.1800 C   0  0  2  0  0  0  0  0  0  0  0  0
    3.9970  -21.2070   21.4920 C   0  0  0  0  0  0  0  0  0  0  0  0
    5.1870  -20.8900   21.4700 O   0  0  0  0  0  0  0  0  0  0  0  0
    2.3550  -19.6110   22.4870 C   0  0  0  0  0  0  0  0  0  0  0  0
    3.3970  -19.1780   23.5200 C   0  0  0  0  0  0  0  0  0  0  0  0
    4.3550  -18.1540   22.9240 C   0  0  0  0  0  0  0  0  0  0  0  0
    2.7240  -18.6340   24.7710 C   0  0  0  0  0  0  0  0  0  0  0  0
    3.5730  -22.4350   21.7840 N   0  0  0  0  0  0  0  0  0  0  0  0
    4.4850  -23.5210   22.1240 C   0  0  2  0  0  0  0  0  0  0  0  0
    5.3770  -23.8660   20.9420 C   0  0  0  0  0  0  0  0  0  0  0  0
    6.5870  -24.0440   21.0970 O   0  0  0  0  0  0  0  0  0  0  0  0
    3.7000  -24.7560   22.5720 C   0  0  0  0  0  0  0  0  0  0  0  0
    4.5630  -25.9130   22.9680 C   0  0  0  0  0  0  0  0  0  0  0  0
    5.0250  -26.8450   22.0620 N   0  0  0  0  0  0  0  0  0  0  0  0
    5.0360  -26.2950   24.1760 C   0  0  0  0  0  0  0  0  0  0  0  0
    5.7480  -27.7500   22.6980 C   0  0  0  0  0  0  0  0  0  0  0  0
    5.7700  -27.4400   23.9810 N   0  0  0  0  0  0  0  0  0  0  0  0
    4.7760  -23.9570   19.7610 N   0  0  0  0  0  0  0  0  0  0  0  0
    5.5230  -24.2960   18.5550 C   0  0  2  0  0  0  0  0  0  0  0  0
    6.4980  -23.1890   18.1570 C   0  0  0  0  0  0  0  0  0  0  0  0
    7.6650  -23.4530   17.8600 O   0  0  0  0  0  0  0  0  0  0  0  0
    4.5680  -24.5900   17.4000 C   0  0  0  0  0  0  0  0  0  0  0  0
    5.2630  -24.9080   16.0900 C   0  0  0  0  0  0  0  0  0  0  0  0
    4.2840  -25.4360   15.0510 C   0  0  0  0  0  0  0  0  0  0  0  0
    3.1030  -24.5880   14.9340 N   0  0  0  0  0  0  0  0  0  0  0  0
    3.0450  -23.4800   14.2020 C   0  0  0  0  0  0  0  0  0  0  0  0
    4.1070  -23.0730   13.5190 N   0  0  0  0  0  0  0  0  0  0  0  0
    1.9220  -22.7750   14.1590 N   0  0  0  0  0  0  0  0  0  0  0  0
    6.0120  -21.9500   18.1580 N   0  0  0  0  0  0  0  0  0  0  0  0
    6.8320  -20.8010   17.7880 C   0  0  2  0  0  0  0  0  0  0  0  0
    8.0490  -20.6770   18.6980 C   0  0  0  0  0  0  0  0  0  0  0  0
    9.1330  -20.3010   18.2520 O   0  0  0  0  0  0  0  0  0  0  0  0
    6.0080  -19.5130   17.8340 C   0  0  0  0  0  0  0  0  0  0  0  0
    4.8310  -19.4150   16.8630 C   0  0  0  0  0  0  0  0  0  0  0  0
    4.1050  -18.0930   17.0520 C   0  0  0  0  0  0  0  0  0  0  0  0
    5.3090  -19.5700   15.4270 C   0  0  0  0  0  0  0  0  0  0  0  0
    7.8630  -20.9930   19.9750 N   0  0  0  0  0  0  0  0  0  0  0  0
    8.9690  -20.9780   20.9260 C   0  0  2  0  0  0  0  0  0  0  0  0
    9.9900  -22.0630   20.5990 C   0  0  0  0  0  0  0  0  0  0  0  0
   11.1830  -21.9020   20.8590 O   0  0  0  0  0  0  0  0  0  0  0  0
    8.4570  -21.1550   22.3550 C   0  0  0  0  0  0  0  0  0  0  0  0
    7.8980  -19.9040   23.0320 C   0  0  0  0  0  0  0  0  0  0  0  0
    7.2600  -20.2450   24.3720 C   0  0  0  0  0  0  0  0  0  0  0  0
    8.9990  -18.8700   23.2050 C   0  0  0  0  0  0  0  0  0  0  0  0
    9.5130  -23.1670   20.0320 N   0  0  0  0  0  0  0  0  0  0  0  0
   10.3830  -24.2730   19.6520 C   0  0  2  0  0  0  0  0  0  0  0  0
   11.1030  -23.9820   18.3400 C   0  0  0  0  0  0  0  0  0  0  0  0
   12.0570  -24.6760   17.9790 O   0  0  0  0  0  0  0  0  0  0  0  0
    9.5800  -25.5690   19.5300 C   0  0  0  0  0  0  0  0  0  0  0  0
    9.8810  -26.5870   20.6150 C   0  0  0  0  0  0  0  0  0  0  0  0
    9.1690  -27.9060   20.3890 C   0  0  0  0  0  0  0  0  0  0  0  0
    8.3460  -28.0340   19.4810 O   0  0  0  0  0  0  0  0  0  0  0  0
    9.4820  -28.8950   21.2160 N   0  0  0  0  0  0  0  0  0  0  0  0
   10.6360  -22.9490   17.6410 N   0  0  0  0  0  0  0  0  0  0  0  0
   11.1720  -22.5500   16.3380 C   0  0  2  0  0  0  0  0  0  0  0  0
   10.5980  -23.4010   15.2080 C   0  0  0  0  0  0  0  0  0  0  0  0
    9.6390  -23.0010   14.5460 O   0  0  0  0  0  0  0  0  0  0  0  0
   12.7050  -22.5950   16.3220 C   0  0  0  0  0  0  0  0  0  0  0  0
  2  1  1  1
  3  2  1  0
  4  3  2  0
  5  2  1  0
  6  5  1  0
  7  6  1  0
  8  7  1  0
  9  8  1  0
 10  3  1  0
 11 10  1  1
 12 11  1  0
 13 12  2  0
 14 11  1  0
 15 14  1  0
 14 16  1  6
 17 15  1  0
 18 12  1  0
 19 18  1  0
 20 19  1  0
 21 20  2  0
 19 22  1  1
 23 22  1  0
 24 23  1  0
 25 23  1  0
 26 20  1  0
 27 26  1  0
 28 27  1  0
 29 28  2  0
 27 30  1  6
 31 30  1  0
 32 31  1  0
 33 31  2  0
 34 32  2  0
 35 33  1  0
 35 34  1  0
 36 28  1  0
 37 36  1  0
 38 37  1  0
 39 38  2  0
 37 40  1  6
 41 40  1  0
 42 41  1  0
 43 42  1  0
 44 43  1  0
 45 44  1  0
 46 44  2  0
 47 38  1  0
 48 47  1  0
 49 48  1  0
 50 49  2  0
 48 51  1  1
 52 51  1  0
 53 52  1  0
 54 52  1  0
 55 49  1  0
 56 55  1  0
 57 56  1  0
 58 57  2  0
 56 59  1  1
 60 59  1  0
 61 60  1  0
 62 60  1  0
 63 57  1  0
 64 63  1  0
 65 64  1  0
 66 65  2  0
 64 67  1  6
 68 67  1  0
 69 68  1  0
 70 69  2  0
 71 69  1  0
 72 65  1  0
 73 72  1  0
 74 73  1  0
 75 74  2  0
 73 76  1  1
M  END
$$$$
4MGA
     RDKit          3D

 77 77  0  0  0  0  0  0  0  0999 V2000
  -24.3830   10.5240   47.5190 N   0  0  0  0  0  0  0  0  0  0  0  0
  -25.3370    9.5080   47.9420 C   0  0  2  0  0  0  0  0  0  0  0  0
  -24.6160    8.2590   48.4440 C   0  0  0  0  0  0  0  0  0  0  0  0
  -25.1180    7.5480   49.3170 O   0  0  0  0  0  0  0  0  0  0  0  0
  -26.2740    9.1550   46.7960 C   0  0  0  0  0  0  0  0  0  0  0  0
  -23.4370    8.0020   47.8860 N   0  0  0  0  0  0  0  0  0  0  0  0
  -22.6550    6.8210   48.2370 C   0  0  2  0  0  0  0  0  0  0  0  0
  -22.4050    6.7080   49.7400 C   0  0  0  0  0  0  0  0  0  0  0  0
  -22.0700    7.6890   50.4020 O   0  0  0  0  0  0  0  0  0  0  0  0
  -21.3230    6.8170   47.4780 C   0  0  0  0  0  0  0  0  0  0  0  0
  -22.5750    5.4980   50.2630 N   0  0  0  0  0  0  0  0  0  0  0  0
  -22.3150    5.1960   51.6670 C   0  0  2  0  0  0  0  0  0  0  0  0
  -20.8760    5.5050   52.0650 C   0  0  0  0  0  0  0  0  0  0  0  0
  -20.6020    5.8720   53.2090 O   0  0  0  0  0  0  0  0  0  0  0  0
  -22.5910    3.7160   51.9740 C   0  0  2  0  0  0  0  0  0  0  0  0
  -24.0630    3.3830   51.7210 C   0  0  0  0  0  0  0  0  0  0  0  0
  -22.2000    3.3840   53.4050 C   0  0  0  0  0  0  0  0  0  0  0  0
  -24.3960    1.9190   51.9000 C   0  0  0  0  0  0  0  0  0  0  0  0
  -19.9560    5.3370   51.1220 N   0  0  0  0  0  0  0  0  0  0  0  0
  -18.5520    5.6370   51.3730 C   0  0  2  0  0  0  0  0  0  0  0  0
  -18.3670    7.1200   51.6950 C   0  0  0  0  0  0  0  0  0  0  0  0
  -17.6000    7.4760   52.5890 O   0  0  0  0  0  0  0  0  0  0  0  0
  -17.6990    5.2340   50.1690 C   0  0  0  0  0  0  0  0  0  0  0  0
  -16.1940    5.5050   50.2080 C   0  0  0  0  0  0  0  0  0  0  0  0
  -15.5590    4.9230   51.4590 C   0  0  0  0  0  0  0  0  0  0  0  0
  -15.5410    4.9210   48.9570 C   0  0  0  0  0  0  0  0  0  0  0  0
  -19.0770    7.9760   50.9630 N   0  0  0  0  0  0  0  0  0  0  0  0
  -19.0760    9.4120   51.2330 C   0  0  2  0  0  0  0  0  0  0  0  0
  -19.3600    9.6670   52.7070 C   0  0  0  0  0  0  0  0  0  0  0  0
  -18.6510   10.4240   53.3790 O   0  0  0  0  0  0  0  0  0  0  0  0
  -20.1660   10.1150   50.4220 C   0  0  0  0  0  0  0  0  0  0  0  0
  -19.8900   10.2050   48.9550 C   0  0  0  0  0  0  0  0  0  0  0  0
  -18.6190   10.3040   48.4300 N   0  0  0  0  0  0  0  0  0  0  0  0
  -20.7360   10.2310   47.8970 C   0  0  0  0  0  0  0  0  0  0  0  0
  -18.6950   10.3800   47.1120 C   0  0  0  0  0  0  0  0  0  0  0  0
  -19.9680   10.3330   46.7640 N   0  0  0  0  0  0  0  0  0  0  0  0
  -20.4160    9.0290   53.2020 N   0  0  0  0  0  0  0  0  0  0  0  0
  -20.8700    9.2310   54.5710 C   0  0  2  0  0  0  0  0  0  0  0  0
  -19.8470    8.7280   55.5830 C   0  0  0  0  0  0  0  0  0  0  0  0
  -19.5580    9.3960   56.5730 O   0  0  0  0  0  0  0  0  0  0  0  0
  -22.2180    8.5350   54.7870 C   0  0  0  0  0  0  0  0  0  0  0  0
  -22.8670    8.8280   56.1280 C   0  0  0  0  0  0  0  0  0  0  0  0
  -24.2630    8.2190   56.2240 C   0  0  0  0  0  0  0  0  0  0  0  0
  -24.2570    6.7620   56.1050 N   0  0  0  0  0  0  0  0  0  0  0  0
  -23.7870    5.9350   57.0350 C   0  0  0  0  0  0  0  0  0  0  0  0
  -23.2630    6.4190   58.1530 N   0  0  0  0  0  0  0  0  0  0  0  0
  -23.8300    4.6240   56.8410 N   0  0  0  0  0  0  0  0  0  0  0  0
  -19.2970    7.5470   55.3260 N   0  0  0  0  0  0  0  0  0  0  0  0
  -18.3650    6.9210   56.2600 C   0  0  2  0  0  0  0  0  0  0  0  0
  -17.0460    7.6800   56.3540 C   0  0  0  0  0  0  0  0  0  0  0  0
  -16.4160    7.7180   57.4110 O   0  0  0  0  0  0  0  0  0  0  0  0
  -18.1090    5.4640   55.8670 C   0  0  0  0  0  0  0  0  0  0  0  0
  -19.3330    4.5490   55.9310 C   0  0  0  0  0  0  0  0  0  0  0  0
  -18.9360    3.1070   55.6650 C   0  0  0  0  0  0  0  0  0  0  0  0
  -20.0110    4.6780   57.2840 C   0  0  0  0  0  0  0  0  0  0  0  0
  -16.6290    8.2750   55.2410 N   0  0  0  0  0  0  0  0  0  0  0  0
  -15.3900    9.0430   55.2090 C   0  0  2  0  0  0  0  0  0  0  0  0
  -15.5110   10.3450   55.9990 C   0  0  0  0  0  0  0  0  0  0  0  0
  -14.5080   10.9260   56.4110 O   0  0  0  0  0  0  0  0  0  0  0  0
  -14.9640    9.3280   53.7640 C   0  0  0  0  0  0  0  0  0  0  0  0
  -14.1530    8.2300   53.0760 C   0  0  0  0  0  0  0  0  0  0  0  0
  -14.0710    8.4610   51.5660 C   0  0  0  0  0  0  0  0  0  0  0  0
  -12.7660    8.1410   53.6930 C   0  0  0  0  0  0  0  0  0  0  0  0
  -16.7460   10.7900   56.2160 N   0  0  0  0  0  0  0  0  0  0  0  0
  -16.9980   12.0380   56.9340 C   0  0  2  0  0  0  0  0  0  0  0  0
  -17.3800   11.8170   58.3990 C   0  0  0  0  0  0  0  0  0  0  0  0
  -17.2200   12.7120   59.2330 O   0  0  0  0  0  0  0  0  0  0  0  0
  -18.0820   12.8500   56.2240 C   0  0  0  0  0  0  0  0  0  0  0  0
  -17.6570   13.4100   54.8770 C   0  0  0  0  0  0  0  0  0  0  0  0
  -18.7180   14.3020   54.2620 C   0  0  0  0  0  0  0  0  0  0  0  0
  -19.8700   13.8960   54.0990 O   0  0  0  0  0  0  0  0  0  0  0  0
  -18.3370   15.5290   53.9270 N   0  0  0  0  0  0  0  0  0  0  0  0
  -17.8880   10.6270   58.7080 N   0  0  0  0  0  0  0  0  0  0  0  0
  -18.3030   10.3000   60.0690 C   0  0  2  0  0  0  0  0  0  0  0  0
  -17.0990   10.0090   60.9600 C   0  0  0  0  0  0  0  0  0  0  0  0
  -16.0060   10.5230   60.7290 O   0  0  0  0  0  0  0  0  0  0  0  0
  -19.2590    9.1030   60.0690 C   0  0  0  0  0  0  0  0  0  0  0  0
  2  1  1  0
  3  2  1  0
  4  3  2  0
  2  5  1  6
  6  3  1  0
  7  6  1  0
  8  7  1  0
  9  8  2  0
  7 10  1  6
 11  8  1  0
 12 11  1  6
 13 12  1  0
 14 13  2  0
 15 12  1  0
 16 15  1  0
 15 17  1  1
 18 16  1  0
 19 13  1  0
 20 19  1  0
 21 20  1  0
 22 21  2  0
 20 23  1  6
 24 23  1  0
 25 24  1  0
 26 24  1  0
 27 21  1  0
 28 27  1  0
 29 28  1  0
 30 29  2  0
 28 31  1  6
 32 31  1  0
 33 32  1  0
 34 32  2  0
 35 33  2  0
 36 35  1  0
 36 34  1  0
 37 29  1  0
 38 37  1  0
 39 38  1  0
 40 39  2  0
 38 41  1  6
 42 41  1  0
 43 42  1  0
 44 43  1  0
 45 44  1  0
 46 45  1  0
 47 45  2  0
 48 39  1  0
 49 48  1  0
 50 49  1  0
 51 50  2  0
 49 52  1  6
 53 52  1  0
 54 53  1  0
 55 53  1  0
 56 50  1  0
 57 56  1  0
 58 57  1  0
 59 58  2  0
 57 60  1  6
 61 60  1  0
 62 61  1  0
 63 61  1  0
 64 58  1  0
 65 64  1  0
 66 65  1  0
 67 66  2  0
 65 68  1  6
 69 68  1  0
 70 69  1  0
 71 70  2  0
 72 70  1  0
 73 66  1  0
 74 73  1  0
 75 74  1  0
 76 75  2  0
 74 77  1  6
M  END
$$$$
9BPX
     RDKit          3D

 10 10  0  0  0  0  0  0  0  0999 V2000
  -11.1600  -11.9000    3.5510 N   0  0  0  0  0  0  0  0  0  0  0  0
  -12.4470  -11.3510    3.9610 C   0  0  2  0  0  0  0  0  0  0  0  0
  -12.4040   -9.8270    4.0130 C   0  0  0  0  0  0  0  0  0  0  0  0
  -11.7840   -9.2430    4.9010 O   0  0  0  0  0  0  0  0  0  0  0  0
  -12.8620  -11.9150    5.3210 C   0  0  0  0  0  0  0  0  0  0  0  0
  -13.4540  -13.2880    5.2500 C   0  0  0  0  0  0  0  0  0  0  0  0
  -14.0030  -13.8020    4.0950 N   0  0  0  0  0  0  0  0  0  0  0  0
  -13.5830  -14.2530    6.1900 C   0  0  0  0  0  0  0  0  0  0  0  0
  -14.4450  -15.0250    4.3270 C   0  0  0  0  0  0  0  0  0  0  0  0
  -14.2020  -15.3230    5.5910 N   0  0  0  0  0  0  0  0  0  0  0  0
  2  1  1  1
  3  2  1  0
  4  3  1  0
  5  2  1  0
  6  5  1  0
  7  6  1  0
  8  6  1  0
  9  7  1  0
 10  9  1  0
 10  8  1  0
M  END
$$$$
9I6Y
     RDKit          3D

 42 43  0  0  0  0  0  0  0  0999 V2000
  -12.5620   -8.0450   14.9710 N   0  0  0  0  0  0  0  0  0  0  0  0
  -13.5660   -9.1070   14.8790 C   0  0  2  0  0  0  0  0  0  0  0  0
  -12.9780  -10.3330   14.1870 C   0  0  0  0  0  0  0  0  0  0  0  0
  -12.1620  -10.2240   13.2750 O   0  0  0  0  0  0  0  0  0  0  0  0
  -14.8180   -8.6330   14.1210 C   0  0  0  0  0  0  0  0  0  0  0  0
  -15.4410   -7.3820   14.6900 C   0  0  0  0  0  0  0  0  0  0  0  0
  -14.9300   -6.1300   14.3810 C   0  0  0  0  0  0  0  0  0  0  0  0
  -16.5200   -7.4580   15.5560 C   0  0  0  0  0  0  0  0  0  0  0  0
  -15.5020   -4.9780   14.9090 C   0  0  0  0  0  0  0  0  0  0  0  0
  -17.0860   -6.3050   16.0870 C   0  0  0  0  0  0  0  0  0  0  0  0
  -16.5760   -5.0720   15.7560 C   0  0  0  0  0  0  0  0  0  0  0  0
  -13.3770  -11.5550   14.5860 N   0  0  0  0  0  0  0  0  0  0  0  0
  -12.8250  -12.7510   13.9740 C   0  0  2  0  0  0  0  0  0  0  0  0
  -13.4060  -13.0430   12.5920 C   0  0  0  0  0  0  0  0  0  0  0  0
  -14.4740  -12.5570   12.2280 O   0  0  0  0  0  0  0  0  0  0  0  0
  -13.1950  -13.8170   14.9890 C   0  0  0  0  0  0  0  0  0  0  0  0
  -14.4930  -13.3570   15.5490 C   0  0  0  0  0  0  0  0  0  0  0  0
  -14.3790  -11.8580   15.6200 C   0  0  0  0  0  0  0  0  0  0  0  0
  -12.6780  -13.8590   11.8330 N   0  0  0  0  0  0  0  0  0  0  0  0
  -13.0540  -14.2480   10.4960 C   0  0  2  0  0  0  0  0  0  0  0  0
  -14.1780  -15.2780   10.4700 C   0  0  0  0  0  0  0  0  0  0  0  0
  -14.1040  -16.2820   11.1730 O   0  0  0  0  0  0  0  0  0  0  0  0
  -11.8710  -14.8430    9.7590 C   0  0  0  0  0  0  0  0  0  0  0  0
  -15.1930  -15.0070    9.6470 N   0  0  0  0  0  0  0  0  0  0  0  0
  -16.2340  -15.9520    9.2890 C   0  0  1  0  0  0  0  0  0  0  0  0
  -17.5440  -15.6640   10.0350 C   0  0  1  0  0  0  0  0  0  0  0  0
  -17.4100  -15.7980   11.5340 C   0  0  0  0  0  0  0  0  0  0  0  0
  -17.8910  -14.2820    9.6830 O   0  0  0  0  0  0  0  0  0  0  0  0
  -19.3390  -13.6450   10.0200 P   0  0  0  0  0  0  0  0  0  0  0  0
  -19.3470  -13.2530   11.4660 O   0  0  0  0  0  0  0  0  0  0  0  0
  -19.3820  -12.4300    9.0850 O   0  0  0  0  0  0  0  0  0  0  0  0
  -20.3620  -14.6570    9.6730 O   0  0  0  0  0  0  0  0  0  0  0  0
  -16.4350  -15.9240    7.7810 C   0  0  0  0  0  0  0  0  0  0  0  0
  -16.0340  -14.9710    7.1050 O   0  0  0  0  0  0  0  0  0  0  0  0
  -17.0180  -17.0020    7.2530 N   0  0  0  0  0  0  0  0  0  0  0  0
  -17.2800  -17.0990    5.8290 C   0  0  2  0  0  0  0  0  0  0  0  0
  -18.6990  -17.4030    5.5000 C   0  0  0  0  0  0  0  0  0  0  0  0
  -19.4790  -17.8180    6.3650 O   0  0  0  0  0  0  0  0  0  0  0  0
  -16.3890  -18.1530    5.1520 C   0  0  0  0  0  0  0  0  0  0  0  0
  -14.9460  -17.7470    5.2230 C   0  0  0  0  0  0  0  0  0  0  0  0
  -16.6010  -19.5400    5.7540 C   0  0  0  0  0  0  0  0  0  0  0  0
  -19.0780  -17.2660    4.3220 O   0  0  0  0  0  0  0  0  0  0  0  0
  2  1  1  6
  3  2  1  0
  4  3  2  0
  5  2  1  0
  6  5  1  0
  7  6  2  0
  8  6  1  0
  9  7  1  0
 10  8  2  0
 11 10  1  0
 11  9  2  0
 12  3  1  0
 13 12  1  0
 13 14  1  6
 15 14  2  0
 16 13  1  0
 17 16  1  0
 18 17  1  0
 18 12  1  0
 19 14  1  0
 20 19  1  0
 21 20  1  0
 22 21  2  0
 20 23  1  1
 24 21  1  0
 25 24  1  6
 26 25  1  0
 26 27  1  1
 28 26  1  0
 29 28  1  0
 30 29  1  0
 31 29  1  0
 32 29  1  0
 33 25  1  0
 34 33  1  0
 35 33  1  0
 36 35  1  1
 37 36  1  0
 38 37  2  0
 39 36  1  0
 40 39  1  0
 41 39  1  0
 42 37  1  0
M  END
$$$$
8ARZ
     RDKit          3D

 42 43  0  0  0  0  0  0  0  0999 V2000
  -12.5310   -8.2400   14.9340 N   0  0  0  0  0  0  0  0  0  0  0  0
  -13.6190   -9.2240   14.6180 C   0  0  2  0  0  0  0  0  0  0  0  0
  -13.1100  -10.4450   13.8630 C   0  0  0  0  0  0  0  0  0  0  0  0
  -12.3630  -10.3390   12.8980 O   0  0  0  0  0  0  0  0  0  0  0  0
  -14.7240   -8.5430   13.8220 C   0  0  0  0  0  0  0  0  0  0  0  0
  -15.2810   -7.3460   14.5210 C   0  0  0  0  0  0  0  0  0  0  0  0
  -16.2360   -7.4940   15.5160 C   0  0  0  0  0  0  0  0  0  0  0  0
  -14.8080   -6.0670   14.2280 C   0  0  0  0  0  0  0  0  0  0  0  0
  -16.7450   -6.3790   16.1770 C   0  0  0  0  0  0  0  0  0  0  0  0
  -15.3100   -4.9550   14.8840 C   0  0  0  0  0  0  0  0  0  0  0  0
  -16.2840   -5.1060   15.8580 C   0  0  0  0  0  0  0  0  0  0  0  0
  -13.5080  -11.6610   14.2740 N   0  0  0  0  0  0  0  0  0  0  0  0
  -12.9560  -12.8710   13.6690 C   0  0  2  0  0  0  0  0  0  0  0  0
  -13.5330  -13.1950   12.2820 C   0  0  0  0  0  0  0  0  0  0  0  0
  -14.5990  -12.7420   11.9300 O   0  0  0  0  0  0  0  0  0  0  0  0
  -13.3140  -13.9370   14.6990 C   0  0  0  0  0  0  0  0  0  0  0  0
  -14.6150  -13.4490   15.2660 C   0  0  0  0  0  0  0  0  0  0  0  0
  -14.4810  -11.9460   15.3420 C   0  0  0  0  0  0  0  0  0  0  0  0
  -12.8100  -14.0220   11.5350 N   0  0  0  0  0  0  0  0  0  0  0  0
  -13.2230  -14.4300   10.2240 C   0  0  2  0  0  0  0  0  0  0  0  0
  -14.3350  -15.4580   10.2570 C   0  0  0  0  0  0  0  0  0  0  0  0
  -14.2720  -16.4420   11.0100 O   0  0  0  0  0  0  0  0  0  0  0  0
  -12.0440  -15.0160    9.4770 C   0  0  0  0  0  0  0  0  0  0  0  0
  -15.3400  -15.2240    9.4180 N   0  0  0  0  0  0  0  0  0  0  0  0
  -16.4240  -16.1710    9.0750 C   0  0  1  0  0  0  0  0  0  0  0  0
  -17.7170  -15.8520    9.8380 C   0  0  1  0  0  0  0  0  0  0  0  0
  -17.5540  -15.9910   11.3300 C   0  0  0  0  0  0  0  0  0  0  0  0
  -18.0260  -14.4710    9.5060 O   0  0  0  0  0  0  0  0  0  0  0  0
  -19.4300  -13.7920    9.9050 P   0  0  0  0  0  0  0  0  0  0  0  0
  -19.4960  -12.5670    9.0110 O   0  0  0  0  0  0  0  0  0  0  0  0
  -19.4030  -13.4320   11.3700 O   0  0  0  0  0  0  0  0  0  0  0  0
  -20.5100  -14.7980    9.5670 O   0  0  0  0  0  0  0  0  0  0  0  0
  -16.6170  -16.1710    7.5650 C   0  0  0  0  0  0  0  0  0  0  0  0
  -16.2220  -15.1880    6.8920 O   0  0  0  0  0  0  0  0  0  0  0  0
  -17.1910  -17.2490    7.0520 N   0  0  0  0  0  0  0  0  0  0  0  0
  -17.4770  -17.3390    5.6460 C   0  0  2  0  0  0  0  0  0  0  0  0
  -18.9240  -17.6340    5.3580 C   0  0  0  0  0  0  0  0  0  0  0  0
  -19.6960  -18.0680    6.2410 O   0  0  0  0  0  0  0  0  0  0  0  0
  -16.6080  -18.4090    4.9640 C   0  0  0  0  0  0  0  0  0  0  0  0
  -15.1570  -17.9830    4.9990 C   0  0  0  0  0  0  0  0  0  0  0  0
  -16.8370  -19.7810    5.5860 C   0  0  0  0  0  0  0  0  0  0  0  0
  -19.3140  -17.5180    4.1790 O   0  0  0  0  0  0  0  0  0  0  0  0
  2  1  1  6
  3  2  1  0
  4  3  2  0
  5  2  1  0
  6  5  1  0
  7  6  2  0
  8  6  1  0
  9  7  1  0
 10  8  2  0
 11  9  2  0
 11 10  1  0
 12  3  1  0
 13 12  1  0
 13 14  1  6
 15 14  2  0
 16 13  1  0
 17 16  1  0
 18 17  1  0
 18 12  1  0
 19 14  1  0
 20 19  1  0
 21 20  1  0
 22 21  2  0
 20 23  1  1
 24 21  1  0
 25 24  1  6
 26 25  1  0
 26 27  1  1
 28 26  1  0
 29 28  1  0
 30 29  1  0
 31 29  1  0
 32 29  1  0
 33 25  1  0
 34 33  1  0
 35 33  1  0
 36 35  1  1
 37 36  1  0
 38 37  2  0
 39 36  1  0
 40 39  1  0
 41 39  1  0
 42 37  1  0
M  END
$$$$
5TLL
     RDKit          3D

 75 75  0  0  0  0  0  0  0  0999 V2000
    0.9530  -17.9710   20.9900 N   0  0  0  0  0  0  0  0  0  0  0  0
    0.7960  -16.5320   21.1690 C   0  0  2  0  0  0  0  0  0  0  0  0
    1.6860  -15.7580   20.2010 C   0  0  0  0  0  0  0  0  0  0  0  0
    2.8600  -16.0890   20.0270 O   0  0  0  0  0  0  0  0  0  0  0  0
    1.1130  -16.1310   22.6120 C   0  0  0  0  0  0  0  0  0  0  0  0
    1.1110  -14.7300   19.5710 N   0  0  0  0  0  0  0  0  0  0  0  0
    1.8660  -13.9040   18.6310 C   0  0  2  0  0  0  0  0  0  0  0  0
    3.0490  -13.2490   19.3280 C   0  0  0  0  0  0  0  0  0  0  0  0
    4.1670  -13.2250   18.7990 O   0  0  0  0  0  0  0  0  0  0  0  0
    0.9450  -12.8520   17.9850 C   0  0  2  0  0  0  0  0  0  0  0  0
   -0.1870  -13.5330   17.2130 C   0  0  0  0  0  0  0  0  0  0  0  0
    1.7440  -11.9230   17.0840 C   0  0  0  0  0  0  0  0  0  0  0  0
   -1.1710  -12.5650   16.5920 C   0  0  0  0  0  0  0  0  0  0  0  0
    2.8180  -12.7080   20.5260 N   0  0  0  0  0  0  0  0  0  0  0  0
    3.8900  -12.0690   21.2800 C   0  0  2  0  0  0  0  0  0  0  0  0
    5.0470  -13.0300   21.5180 C   0  0  0  0  0  0  0  0  0  0  0  0
    6.2180  -12.6400   21.4360 O   0  0  0  0  0  0  0  0  0  0  0  0
    3.3440  -11.5460   22.6070 C   0  0  0  0  0  0  0  0  0  0  0  0
    4.3170  -10.7900   23.5080 C   0  0  0  0  0  0  0  0  0  0  0  0
    4.7910   -9.5320   22.8220 C   0  0  0  0  0  0  0  0  0  0  0  0
    3.6550  -10.4610   24.8300 C   0  0  0  0  0  0  0  0  0  0  0  0
    4.7350  -14.2940   21.8070 N   0  0  0  0  0  0  0  0  0  0  0  0
    5.7800  -15.2880   22.0200 C   0  0  2  0  0  0  0  0  0  0  0  0
    6.6010  -15.5030   20.7540 C   0  0  0  0  0  0  0  0  0  0  0  0
    7.8260  -15.6600   20.8180 O   0  0  0  0  0  0  0  0  0  0  0  0
    5.1520  -16.6000   22.4880 C   0  0  0  0  0  0  0  0  0  0  0  0
    6.1330  -17.5740   23.0570 C   0  0  0  0  0  0  0  0  0  0  0  0
    6.6710  -18.6060   22.3180 N   0  0  0  0  0  0  0  0  0  0  0  0
    6.6690  -17.6790   24.2960 C   0  0  0  0  0  0  0  0  0  0  0  0
    7.4990  -19.3020   23.0760 C   0  0  0  0  0  0  0  0  0  0  0  0
    7.5150  -18.7620   24.2810 N   0  0  0  0  0  0  0  0  0  0  0  0
    5.9440  -15.5000   19.5920 N   0  0  0  0  0  0  0  0  0  0  0  0
    6.6540  -15.7220   18.3360 C   0  0  2  0  0  0  0  0  0  0  0  0
    7.5470  -14.5390   17.9840 C   0  0  0  0  0  0  0  0  0  0  0  0
    8.6990  -14.7250   17.5740 O   0  0  0  0  0  0  0  0  0  0  0  0
    5.6540  -15.9950   17.2120 C   0  0  0  0  0  0  0  0  0  0  0  0
    6.2930  -16.1720   15.8440 C   0  0  0  0  0  0  0  0  0  0  0  0
    5.2550  -16.4950   14.7750 C   0  0  0  0  0  0  0  0  0  0  0  0
    4.1810  -15.5060   14.7300 N   0  0  0  0  0  0  0  0  0  0  0  0
    4.2630  -14.3390   14.0990 C   0  0  0  0  0  0  0  0  0  0  0  0
    5.3750  -14.0040   13.4590 N   0  0  0  0  0  0  0  0  0  0  0  0
    3.2330  -13.5040   14.1110 N   0  0  0  0  0  0  0  0  0  0  0  0
    7.0360  -13.3150   18.1360 N   0  0  0  0  0  0  0  0  0  0  0  0
    7.8310  -12.1360   17.8080 C   0  0  2  0  0  0  0  0  0  0  0  0
    9.0340  -11.9890   18.7310 C   0  0  0  0  0  0  0  0  0  0  0  0
   10.0650  -11.4420   18.3220 O   0  0  0  0  0  0  0  0  0  0  0  0
    6.9620  -10.8800   17.8770 C   0  0  0  0  0  0  0  0  0  0  0  0
    5.7760  -10.7940   16.9140 C   0  0  0  0  0  0  0  0  0  0  0  0
    4.9070   -9.5940   17.2560 C   0  0  0  0  0  0  0  0  0  0  0  0
    6.2550  -10.7180   15.4730 C   0  0  0  0  0  0  0  0  0  0  0  0
    8.9260  -12.4690   19.9720 N   0  0  0  0  0  0  0  0  0  0  0  0
   10.0210  -12.3110   20.9220 C   0  0  2  0  0  0  0  0  0  0  0  0
   11.1890  -13.2360   20.6040 C   0  0  0  0  0  0  0  0  0  0  0  0
   12.3300  -12.9380   20.9750 O   0  0  0  0  0  0  0  0  0  0  0  0
    9.5170  -12.5540   22.3450 C   0  0  0  0  0  0  0  0  0  0  0  0
    8.7850  -11.3830   23.0060 C   0  0  0  0  0  0  0  0  0  0  0  0
    8.0130  -11.8410   24.2290 C   0  0  0  0  0  0  0  0  0  0  0  0
    9.7680  -10.2860   23.3800 C   0  0  0  0  0  0  0  0  0  0  0  0
   10.9350  -14.3540   19.9260 N   0  0  0  0  0  0  0  0  0  0  0  0
   11.9930  -15.2960   19.5920 C   0  0  2  0  0  0  0  0  0  0  0  0
   12.4630  -15.1850   18.1470 C   0  0  0  0  0  0  0  0  0  0  0  0
   13.4540  -15.8280   17.7860 O   0  0  0  0  0  0  0  0  0  0  0  0
   11.5350  -16.7330   19.8760 C   0  0  0  0  0  0  0  0  0  0  0  0
   10.2670  -17.1450   19.1530 C   0  0  0  0  0  0  0  0  0  0  0  0
    9.7810  -18.5170   19.5790 C   0  0  0  0  0  0  0  0  0  0  0  0
   10.2480  -19.0710   20.5750 O   0  0  0  0  0  0  0  0  0  0  0  0
    8.8410  -19.0740   18.8230 N   0  0  0  0  0  0  0  0  0  0  0  0
   11.7910  -14.3880   17.3230 N   0  0  0  0  0  0  0  0  0  0  0  0
   12.2170  -14.1810   15.9430 C   0  0  2  0  0  0  0  0  0  0  0  0
   13.4920  -13.3470   15.8830 C   0  0  0  0  0  0  0  0  0  0  0  0
   13.6180  -12.4500   15.0490 O   0  0  0  0  0  0  0  0  0  0  0  0
   11.1080  -13.5060   15.1330 C   0  0  0  0  0  0  0  0  0  0  0  0
   10.0640  -14.4890   14.6420 C   0  0  0  0  0  0  0  0  0  0  0  0
    9.9860  -15.6070   15.1940 O   0  0  0  0  0  0  0  0  0  0  0  0
    9.3210  -14.1410   13.7010 O   0  0  0  0  0  0  0  0  0  0  0  0
  2  1  1  0
  3  2  1  0
  4  3  2  0
  2  5  1  1
  6  3  1  0
  7  6  1  1
  8  7  1  0
  9  8  2  0
 10  7  1  0
 11 10  1  0
 10 12  1  6
 13 11  1  0
 14  8  1  0
 15 14  1  0
 16 15  1  0
 17 16  2  0
 15 18  1  1
 19 18  1  0
 20 19  1  0
 21 19  1  0
 22 16  1  0
 23 22  1  0
 24 23  1  0
 25 24  2  0
 23 26  1  6
 27 26  1  0
 28 27  1  0
 29 27  2  0
 30 28  2  0
 31 30  1  0
 31 29  1  0
 32 24  1  0
 33 32  1  0
 34 33  1  0
 35 34  2  0
 33 36  1  6
 37 36  1  0
 38 37  1  0
 39 38  1  0
 40 39  1  0
 41 40  1  0
 42 40  2  0
 43 34  1  0
 44 43  1  0
 45 44  1  0
 46 45  2  0
 44 47  1  1
 48 47  1  0
 49 48  1  0
 50 48  1  0
 51 45  1  0
 52 51  1  0
 53 52  1  0
 54 53  2  0
 52 55  1  1
 56 55  1  0
 57 56  1  0
 58 56  1  0
 59 53  1  0
 60 59  1  0
 61 60  1  0
 62 61  2  0
 60 63  1  6
 64 63  1  0
 65 64  1  0
 66 65  2  0
 67 65  1  0
 68 61  1  0
 69 68  1  0
 70 69  1  0
 71 70  2  0
 69 72  1  6
 73 72  1  0
 74 73  2  0
 75 73  1  0
M  END
$$$$
8DV7
     RDKit          3D

 37 42  0  0  0  0  0  0  0  0999 V2000
   -1.9120   -3.1630   27.5710 N   0  0  0  0  0  0  0  0  0  0  0  0
   -1.6680    1.0970   27.0230 C   0  0  0  0  0  0  0  0  0  0  0  0
   -1.7790   -0.3740   27.1230 C   0  0  0  0  0  0  0  0  0  0  0  0
   -2.8850   -1.1130   26.8420 C   0  0  1  0  0  0  0  0  0  0  0  0
   -0.4740   -1.1100   27.6650 C   0  0  0  0  0  0  0  0  0  0  0  0
   -0.6670   -2.5980   27.3830 C   0  0  2  0  0  0  0  0  0  0  0  0
   -2.2200   -4.3660   28.3870 C   0  0  1  0  0  0  0  0  0  0  0  0
    0.2110   -6.5760   30.3660 C   0  0  0  0  0  0  0  0  0  0  0  0
    0.0610   -4.2730   31.3410 C   0  0  0  0  0  0  0  0  0  0  0  0
    0.1680   -2.9130   26.1060 C   0  0  0  0  0  0  0  0  0  0  0  0
   -4.1640   -4.1680   25.3190 C   0  0  0  0  0  0  0  0  0  0  0  0
   -4.4550   -4.7460   23.9330 C   0  0  0  0  0  0  0  0  0  0  0  0
   -3.7710   -4.2180   22.9100 C   0  0  0  0  0  0  0  0  0  0  0  0
   -2.4880   -2.5800   24.3030 C   0  0  0  0  0  0  0  0  0  0  0  0
   -4.6490   -3.5870   20.6740 C   0  0  0  0  0  0  0  0  0  0  0  0
   -4.7450   -2.6220   18.4170 C   0  0  0  0  0  0  0  0  0  0  0  0
   -4.1200   -0.4020   26.3760 C   0  0  0  0  0  0  0  0  0  0  0  0
   -1.1780   -4.9630   29.3340 C   0  0  2  0  0  0  0  0  0  0  0  0
   -0.7860   -6.2310   29.2830 C   0  0  0  0  0  0  0  0  0  0  0  0
    0.5750   -5.6840   31.2900 C   0  0  0  0  0  0  0  0  0  0  0  0
   -0.7710   -3.9170   30.3800 C   0  0  0  0  0  0  0  0  0  0  0  0
    0.6920   -3.3760   27.4450 C   0  0  0  0  0  0  0  0  0  0  0  0
   -3.2260   -3.1960   25.4890 C   0  0  1  0  0  0  0  0  0  0  0  0
   -4.0630    0.9360   26.2480 C   0  0  0  0  0  0  0  0  0  0  0  0
   -2.7510   -3.1100   23.1020 C   0  0  0  0  0  0  0  0  0  0  0  0
   -4.0210   -4.7820   21.4540 C   0  0  0  0  0  0  0  0  0  0  0  0
   -4.6530   -3.8680   19.0960 C   0  0  2  0  0  0  0  0  0  0  0  0
   -5.4090   -3.1060   17.1300 C   0  0  0  0  0  0  0  0  0  0  0  0
   -2.8070    1.7200   26.6150 C   0  0  2  0  0  0  0  0  0  0  0  0
   -5.9200   -4.6020   18.7660 C   0  0  0  0  0  0  0  0  0  0  0  0
   -6.7240   -4.7880   16.7830 C   0  0  0  0  0  0  0  0  0  0  0  0
   -7.1910   -4.1730   15.4320 C   0  0  0  0  0  0  0  0  0  0  0  0
   -7.9460   -5.2600   14.6330 C   0  0  0  0  0  0  0  0  0  0  0  0
   -3.0440   -2.6170   26.8740 C   0  0  1  0  0  0  0  0  0  0  0  0
   -6.4400   -3.9310   17.6460 N   0  0  0  0  0  0  0  0  0  0  0  0
   -3.3320   -4.8110   28.4220 O   0  0  0  0  0  0  0  0  0  0  0  0
   -2.7480    3.0710   26.4090 O   0  0  0  0  0  0  0  0  0  0  0  0
  3  2  1  0
  4  3  1  0
  5  3  1  0
  6  5  1  1
  6  1  1  0
  7  1  1  0
 10  6  1  0
 12 11  1  0
 13 12  1  0
  4 17  1  6
 18  7  1  0
 19  8  1  0
 18 19  1  1
 20  8  1  0
 20  9  1  0
 21 18  1  0
 21  9  1  0
 22 10  1  0
 22  6  1  0
 23 14  1  6
 23 11  1  0
 24 17  1  0
 25 14  1  0
 25 13  1  0
 26 15  1  0
 26 13  1  0
 27 16  1  0
 27 15  1  1
 28 16  1  0
 29 24  1  0
 29  2  1  0
 30 27  1  0
 32 31  1  0
 33 32  1  0
 34 23  1  0
 34  4  1  0
 34  1  1  6
 35 31  1  0
 35 30  1  0
 35 28  1  0
  7 36  1  1
 29 37  1  6
M  END
$$$$
5DWJ
     RDKit          3D

 75 75  0  0  0  0  0  0  0  0999 V2000
   -7.7330  -41.3670  -34.6660 N   0  0  0  0  0  0  0  0  0  0  0  0
   -7.3600  -40.1370  -33.9730 C   0  0  2  0  0  0  0  0  0  0  0  0
   -6.4280  -39.2880  -34.8320 C   0  0  0  0  0  0  0  0  0  0  0  0
   -5.2250  -39.5480  -34.8980 O   0  0  0  0  0  0  0  0  0  0  0  0
   -6.6970  -40.4590  -32.6320 C   0  0  0  0  0  0  0  0  0  0  0  0
   -6.9900  -38.2750  -35.4850 N   0  0  0  0  0  0  0  0  0  0  0  0
   -6.2320  -37.4200  -36.3940 C   0  0  2  0  0  0  0  0  0  0  0  0
   -5.0260  -36.7800  -35.7150 C   0  0  0  0  0  0  0  0  0  0  0  0
   -3.9270  -36.7700  -36.2690 O   0  0  0  0  0  0  0  0  0  0  0  0
   -7.1120  -36.3020  -36.9850 C   0  0  2  0  0  0  0  0  0  0  0  0
   -8.2910  -36.8980  -37.7560 C   0  0  0  0  0  0  0  0  0  0  0  0
   -6.2850  -35.3990  -37.8860 C   0  0  0  0  0  0  0  0  0  0  0  0
   -9.1950  -35.8590  -38.3870 C   0  0  0  0  0  0  0  0  0  0  0  0
   -5.2390  -36.2490  -34.5150 N   0  0  0  0  0  0  0  0  0  0  0  0
   -4.1750  -35.5760  -33.7770 C   0  0  2  0  0  0  0  0  0  0  0  0
   -3.0210  -36.5200  -33.4660 C   0  0  0  0  0  0  0  0  0  0  0  0
   -1.8550  -36.1420  -33.5600 O   0  0  0  0  0  0  0  0  0  0  0  0
   -4.7180  -34.9760  -32.4800 C   0  0  0  0  0  0  0  0  0  0  0  0
   -3.6690  -34.3370  -31.5660 C   0  0  0  0  0  0  0  0  0  0  0  0
   -2.8810  -33.2720  -32.3130 C   0  0  0  0  0  0  0  0  0  0  0  0
   -4.3210  -33.7540  -30.3220 C   0  0  0  0  0  0  0  0  0  0  0  0
   -3.3520  -37.7500  -33.0930 N   0  0  0  0  0  0  0  0  0  0  0  0
   -2.3350  -38.7400  -32.7680 C   0  0  2  0  0  0  0  0  0  0  0  0
   -1.5040  -39.0860  -33.9990 C   0  0  0  0  0  0  0  0  0  0  0  0
   -0.2800  -39.1950  -33.9230 O   0  0  0  0  0  0  0  0  0  0  0  0
   -2.9750  -40.0030  -32.1900 C   0  0  0  0  0  0  0  0  0  0  0  0
   -1.9900  -41.0790  -31.8600 C   0  0  0  0  0  0  0  0  0  0  0  0
   -2.3230  -42.4160  -31.8520 N   0  0  0  0  0  0  0  0  0  0  0  0
   -0.6780  -41.0160  -31.5280 C   0  0  0  0  0  0  0  0  0  0  0  0
   -1.2590  -43.1310  -31.5310 C   0  0  0  0  0  0  0  0  0  0  0  0
   -0.2480  -42.3050  -31.3290 N   0  0  0  0  0  0  0  0  0  0  0  0
   -2.1750  -39.2490  -35.1340 N   0  0  0  0  0  0  0  0  0  0  0  0
   -1.4970  -39.5790  -36.3820 C   0  0  2  0  0  0  0  0  0  0  0  0
   -0.5170  -38.4840  -36.7990 C   0  0  0  0  0  0  0  0  0  0  0  0
    0.6360  -38.7670  -37.1220 O   0  0  0  0  0  0  0  0  0  0  0  0
   -2.5160  -39.8230  -37.4980 C   0  0  0  0  0  0  0  0  0  0  0  0
   -1.8850  -40.1170  -38.8500 C   0  0  0  0  0  0  0  0  0  0  0  0
   -2.9060  -40.6370  -39.8490 C   0  0  0  0  0  0  0  0  0  0  0  0
   -4.0220  -39.7130  -40.0330 N   0  0  0  0  0  0  0  0  0  0  0  0
   -3.9540  -38.5930  -40.7460 C   0  0  0  0  0  0  0  0  0  0  0  0
   -2.8170  -38.2490  -41.3370 N   0  0  0  0  0  0  0  0  0  0  0  0
   -5.0200  -37.8140  -40.8630 N   0  0  0  0  0  0  0  0  0  0  0  0
   -0.9800  -37.2380  -36.7870 N   0  0  0  0  0  0  0  0  0  0  0  0
   -0.1490  -36.1080  -37.1950 C   0  0  2  0  0  0  0  0  0  0  0  0
    1.0800  -35.9750  -36.3040 C   0  0  0  0  0  0  0  0  0  0  0  0
    2.1720  -35.6570  -36.7760 O   0  0  0  0  0  0  0  0  0  0  0  0
   -0.9600  -34.8120  -37.1740 C   0  0  0  0  0  0  0  0  0  0  0  0
   -2.1020  -34.7190  -38.1880 C   0  0  0  0  0  0  0  0  0  0  0  0
   -2.9180  -33.4540  -37.9740 C   0  0  0  0  0  0  0  0  0  0  0  0
   -1.5630  -34.7810  -39.6090 C   0  0  0  0  0  0  0  0  0  0  0  0
    0.8940  -36.2230  -35.0120 N   0  0  0  0  0  0  0  0  0  0  0  0
    1.9900  -36.1860  -34.0510 C   0  0  2  0  0  0  0  0  0  0  0  0
    3.0100  -37.2830  -34.3230 C   0  0  0  0  0  0  0  0  0  0  0  0
    4.1940  -37.1350  -34.0200 O   0  0  0  0  0  0  0  0  0  0  0  0
    1.4520  -36.3210  -32.6250 C   0  0  0  0  0  0  0  0  0  0  0  0
    0.9530  -35.0410  -31.9580 C   0  0  0  0  0  0  0  0  0  0  0  0
    0.1090  -35.3640  -30.7350 C   0  0  0  0  0  0  0  0  0  0  0  0
    2.1300  -34.1540  -31.5870 C   0  0  0  0  0  0  0  0  0  0  0  0
    2.5420  -38.3840  -34.9000 N   0  0  0  0  0  0  0  0  0  0  0  0
    3.3820  -39.5550  -35.1130 C   0  0  2  0  0  0  0  0  0  0  0  0
    4.3270  -39.3850  -36.2970 C   0  0  0  0  0  0  0  0  0  0  0  0
    5.4810  -39.8090  -36.2420 O   0  0  0  0  0  0  0  0  0  0  0  0
    2.5120  -40.7950  -35.3160 C   0  0  0  0  0  0  0  0  0  0  0  0
    2.9110  -41.9760  -34.4540 C   0  0  0  0  0  0  0  0  0  0  0  0
    1.9430  -43.1340  -34.5760 C   0  0  0  0  0  0  0  0  0  0  0  0
    1.2540  -43.2770  -35.5860 O   0  0  0  0  0  0  0  0  0  0  0  0
    1.8800  -43.9640  -33.5420 N   0  0  0  0  0  0  0  0  0  0  0  0
    3.8300  -38.7640  -37.3630 N   0  0  0  0  0  0  0  0  0  0  0  0
    4.6010  -38.6030  -38.5930 C   0  0  2  0  0  0  0  0  0  0  0  0
    5.9000  -37.8370  -38.3570 C   0  0  0  0  0  0  0  0  0  0  0  0
    6.9840  -38.3150  -38.6980 O   0  0  0  0  0  0  0  0  0  0  0  0
    3.7630  -37.8910  -39.6580 C   0  0  0  0  0  0  0  0  0  0  0  0
    2.4600  -38.6090  -39.9520 C   0  0  0  0  0  0  0  0  0  0  0  0
    2.4090  -39.8470  -39.7860 O   0  0  0  0  0  0  0  0  0  0  0  0
    1.4850  -37.9360  -40.3480 O   0  0  0  0  0  0  0  0  0  0  0  0
  2  1  1  0
  3  2  1  0
  4  3  2  0
  2  5  1  1
  6  3  1  0
  7  6  1  1
  8  7  1  0
  9  8  2  0
 10  7  1  0
 11 10  1  0
 10 12  1  6
 13 11  1  0
 14  8  1  0
 15 14  1  0
 16 15  1  0
 17 16  2  0
 15 18  1  1
 19 18  1  0
 20 19  1  0
 21 19  1  0
 22 16  1  0
 23 22  1  0
 24 23  1  0
 25 24  2  0
 23 26  1  6
 27 26  1  0
 28 27  1  0
 29 27  2  0
 30 28  2  0
 31 30  1  0
 31 29  1  0
 32 24  1  0
 33 32  1  0
 34 33  1  0
 35 34  2  0
 33 36  1  6
 37 36  1  0
 38 37  1  0
 39 38  1  0
 40 39  1  0
 41 40  1  0
 42 40  2  0
 43 34  1  0
 44 43  1  0
 45 44  1  0
 46 45  2  0
 44 47  1  1
 48 47  1  0
 49 48  1  0
 50 48  1  0
 51 45  1  0
 52 51  1  0
 53 52  1  0
 54 53  2  0
 52 55  1  1
 56 55  1  0
 57 56  1  0
 58 56  1  0
 59 53  1  0
 60 59  1  0
 61 60  1  0
 62 61  2  0
 60 63  1  6
 64 63  1  0
 65 64  1  0
 66 65  2  0
 67 65  1  0
 68 61  1  0
 69 68  1  0
 70 69  1  0
 71 70  2  0
 69 72  1  6
 73 72  1  0
 74 73  2  0
 75 73  1  0
M  END
$$$$
8AV4
     RDKit          3D

 42 43  0  0  0  0  0  0  0  0999 V2000
  -12.5190    7.9540  -14.9560 N   0  0  0  0  0  0  0  0  0  0  0  0
  -13.5980    8.9380  -14.6150 C   0  0  2  0  0  0  0  0  0  0  0  0
  -13.0070   10.1550  -13.9140 C   0  0  0  0  0  0  0  0  0  0  0  0
  -12.1730   10.0150  -13.0260 O   0  0  0  0  0  0  0  0  0  0  0  0
  -14.6530    8.2870  -13.7300 C   0  0  0  0  0  0  0  0  0  0  0  0
  -15.2700    7.0820  -14.3550 C   0  0  0  0  0  0  0  0  0  0  0  0
  -16.3470    7.2130  -15.2220 C   0  0  0  0  0  0  0  0  0  0  0  0
  -14.7490    5.8160  -14.1170 C   0  0  0  0  0  0  0  0  0  0  0  0
  -16.9160    6.0980  -15.8140 C   0  0  0  0  0  0  0  0  0  0  0  0
  -15.3130    4.6970  -14.7060 C   0  0  0  0  0  0  0  0  0  0  0  0
  -16.3990    4.8380  -15.5540 C   0  0  0  0  0  0  0  0  0  0  0  0
  -13.4240   11.3850  -14.2790 N   0  0  0  0  0  0  0  0  0  0  0  0
  -12.8130   12.5890  -13.7250 C   0  0  2  0  0  0  0  0  0  0  0  0
  -13.3990   12.9690  -12.3600 C   0  0  0  0  0  0  0  0  0  0  0  0
  -14.4640   12.5160  -11.9780 O   0  0  0  0  0  0  0  0  0  0  0  0
  -13.1170   13.6320  -14.8050 C   0  0  0  0  0  0  0  0  0  0  0  0
  -14.4730   13.2110  -15.3280 C   0  0  0  0  0  0  0  0  0  0  0  0
  -14.4800   11.6970  -15.2570 C   0  0  0  0  0  0  0  0  0  0  0  0
  -12.6690   13.8110  -11.6310 N   0  0  0  0  0  0  0  0  0  0  0  0
  -13.0210   14.2000  -10.3110 C   0  0  2  0  0  0  0  0  0  0  0  0
  -14.1460   15.2270  -10.3230 C   0  0  0  0  0  0  0  0  0  0  0  0
  -14.1070   16.2100  -11.0620 O   0  0  0  0  0  0  0  0  0  0  0  0
  -11.8150   14.7790   -9.5770 C   0  0  0  0  0  0  0  0  0  0  0  0
  -15.1410   14.9810   -9.4730 N   0  0  0  0  0  0  0  0  0  0  0  0
  -16.2220   15.9330   -9.1310 C   0  0  1  0  0  0  0  0  0  0  0  0
  -17.5290   15.6330   -9.8800 C   0  0  1  0  0  0  0  0  0  0  0  0
  -17.3810   15.8060  -11.3740 C   0  0  0  0  0  0  0  0  0  0  0  0
  -17.8480   14.2520   -9.5550 O   0  0  0  0  0  0  0  0  0  0  0  0
  -19.3010   13.6190   -9.8960 P   0  0  0  0  0  0  0  0  0  0  0  0
  -19.2780   13.2340  -11.3660 O   0  0  0  0  0  0  0  0  0  0  0  0
  -19.3170   12.3980   -8.9610 O   0  0  0  0  0  0  0  0  0  0  0  0
  -20.3010   14.6460   -9.5350 O   0  0  0  0  0  0  0  0  0  0  0  0
  -16.4160   15.9340   -7.6210 C   0  0  0  0  0  0  0  0  0  0  0  0
  -16.0120   14.9530   -6.9430 O   0  0  0  0  0  0  0  0  0  0  0  0
  -16.9990   17.0070   -7.1160 N   0  0  0  0  0  0  0  0  0  0  0  0
  -17.3080   17.1050   -5.7080 C   0  0  2  0  0  0  0  0  0  0  0  0
  -18.7280   17.4460   -5.3830 C   0  0  0  0  0  0  0  0  0  0  0  0
  -19.5130   17.8680   -6.2310 O   0  0  0  0  0  0  0  0  0  0  0  0
  -16.4420   18.1570   -4.9890 C   0  0  0  0  0  0  0  0  0  0  0  0
  -15.0050   17.7660   -5.1140 C   0  0  0  0  0  0  0  0  0  0  0  0
  -16.7180   19.5450   -5.5500 C   0  0  0  0  0  0  0  0  0  0  0  0
  -19.0880   17.3130   -4.1950 O   0  0  0  0  0  0  0  0  0  0  0  0
  2  1  1  1
  3  2  1  0
  4  3  2  0
  5  2  1  0
  6  5  1  0
  7  6  2  0
  8  6  1  0
  9  7  1  0
 10  8  2  0
 11  9  2  0
 11 10  1  0
 12  3  1  0
 13 12  1  0
 13 14  1  1
 15 14  2  0
 16 13  1  0
 17 16  1  0
 18 17  1  0
 18 12  1  0
 19 14  1  0
 20 19  1  0
 21 20  1  0
 22 21  2  0
 20 23  1  6
 24 21  1  0
 25 24  1  1
 26 25  1  0
 26 27  1  6
 28 26  1  0
 29 28  1  0
 30 29  1  0
 31 29  1  0
 32 29  1  0
 33 25  1  0
 34 33  1  0
 35 33  1  0
 36 35  1  6
 37 36  1  0
 38 37  2  0
 39 36  1  0
 40 39  1  0
 41 39  1  0
 42 37  1  0
M  END
$$$$
7RRY
     RDKit          3D

 12 11  0  0  0  0  0  0  0  0999 V2000
   14.1430   17.2710   -3.5860 N   0  0  0  0  0  0  0  0  0  0  0  0
   15.2060   16.3400   -3.2490 C   0  0  2  0  0  0  0  0  0  0  0  0
   16.3010   16.3380   -4.2860 C   0  0  0  0  0  0  0  0  0  0  0  0
   16.0670   16.0150   -5.4340 O   0  0  0  0  0  0  0  0  0  0  0  0
   14.6480   14.9340   -3.1060 C   0  0  2  0  0  0  0  0  0  0  0  0
   13.3880   15.0140   -2.4470 O   0  0  0  0  0  0  0  0  0  0  0  0
   15.5810   14.0800   -2.2860 C   0  0  0  0  0  0  0  0  0  0  0  0
   17.5110   16.6870   -3.8720 N   0  0  0  0  0  0  0  0  0  0  0  0
   18.6390   16.7540   -4.7850 C   0  0  2  0  0  0  0  0  0  0  0  0
   18.8410   15.4650   -5.5420 C   0  0  0  0  0  0  0  0  0  0  0  0
   19.0120   15.4650   -6.7380 O   0  0  0  0  0  0  0  0  0  0  0  0
   19.9100   17.0810   -4.0250 C   0  0  0  0  0  0  0  0  0  0  0  0
  2  1  1  6
  3  2  1  0
  4  3  2  0
  5  2  1  0
  6  5  1  0
  5  7  1  1
  8  3  1  0
  9  8  1  0
 10  9  1  0
 11 10  2  0
  9 12  1  1
M  END
$$$$
8AUY
     RDKit          3D

 42 43  0  0  0  0  0  0  0  0999 V2000
  -12.6090   -8.0150   14.7370 N   0  0  0  0  0  0  0  0  0  0  0  0
  -13.5840   -9.1470   14.7220 C   0  0  2  0  0  0  0  0  0  0  0  0
  -13.0080  -10.3610   13.9980 C   0  0  0  0  0  0  0  0  0  0  0  0
  -12.2240  -10.2150   13.0620 O   0  0  0  0  0  0  0  0  0  0  0  0
  -14.8990   -8.7090   14.0670 C   0  0  0  0  0  0  0  0  0  0  0  0
  -15.6510   -7.6790   14.8600 C   0  0  0  0  0  0  0  0  0  0  0  0
  -16.4710   -8.0610   15.9160 C   0  0  0  0  0  0  0  0  0  0  0  0
  -15.5320   -6.3240   14.5610 C   0  0  0  0  0  0  0  0  0  0  0  0
  -17.1630   -7.1120   16.6540 C   0  0  0  0  0  0  0  0  0  0  0  0
  -16.2220   -5.3720   15.2950 C   0  0  0  0  0  0  0  0  0  0  0  0
  -17.0360   -5.7660   16.3450 C   0  0  0  0  0  0  0  0  0  0  0  0
  -13.3900  -11.5970   14.3930 N   0  0  0  0  0  0  0  0  0  0  0  0
  -12.8200  -12.8040   13.7980 C   0  0  2  0  0  0  0  0  0  0  0  0
  -13.3820  -13.1050   12.4000 C   0  0  0  0  0  0  0  0  0  0  0  0
  -14.4350  -12.5970   12.0610 O   0  0  0  0  0  0  0  0  0  0  0  0
  -13.2250  -13.8910   14.8030 C   0  0  0  0  0  0  0  0  0  0  0  0
  -14.5480  -13.4110   15.3450 C   0  0  0  0  0  0  0  0  0  0  0  0
  -14.4020  -11.9030   15.4190 C   0  0  0  0  0  0  0  0  0  0  0  0
  -12.6620  -13.9260   11.6310 N   0  0  0  0  0  0  0  0  0  0  0  0
  -13.0750  -14.3140   10.2990 C   0  0  2  0  0  0  0  0  0  0  0  0
  -14.2120  -15.3390   10.3190 C   0  0  0  0  0  0  0  0  0  0  0  0
  -14.1800  -16.3080   11.0770 O   0  0  0  0  0  0  0  0  0  0  0  0
  -11.8890  -14.8720    9.5330 C   0  0  0  0  0  0  0  0  0  0  0  0
  -15.2190  -15.0970    9.4780 N   0  0  0  0  0  0  0  0  0  0  0  0
  -16.3080  -16.0460    9.1480 C   0  0  1  0  0  0  0  0  0  0  0  0
  -17.5880  -15.7010    9.9200 C   0  0  1  0  0  0  0  0  0  0  0  0
  -17.4120  -15.7940   11.4180 C   0  0  0  0  0  0  0  0  0  0  0  0
  -17.9190  -14.3190    9.5570 O   0  0  0  0  0  0  0  0  0  0  0  0
  -19.3560  -13.6790    9.9190 P   0  0  0  0  0  0  0  0  0  0  0  0
  -19.4670  -12.4600    9.0090 O   0  0  0  0  0  0  0  0  0  0  0  0
  -19.3220  -13.3170   11.3800 O   0  0  0  0  0  0  0  0  0  0  0  0
  -20.3780  -14.7270    9.5780 O   0  0  0  0  0  0  0  0  0  0  0  0
  -16.5510  -16.0130    7.6400 C   0  0  0  0  0  0  0  0  0  0  0  0
  -16.2080  -14.9900    7.0110 O   0  0  0  0  0  0  0  0  0  0  0  0
  -17.1230  -17.0820    7.0890 N   0  0  0  0  0  0  0  0  0  0  0  0
  -17.3940  -17.1500    5.6620 C   0  0  2  0  0  0  0  0  0  0  0  0
  -18.8460  -17.4610    5.3760 C   0  0  0  0  0  0  0  0  0  0  0  0
  -19.6000  -17.9140    6.2480 O   0  0  0  0  0  0  0  0  0  0  0  0
  -16.4810  -18.1750    4.9600 C   0  0  0  0  0  0  0  0  0  0  0  0
  -15.0150  -17.8190    5.1830 C   0  0  0  0  0  0  0  0  0  0  0  0
  -16.7790  -19.5980    5.4390 C   0  0  0  0  0  0  0  0  0  0  0  0
  -19.2850  -17.2550    4.2450 O   0  0  0  0  0  0  0  0  0  0  0  0
  2  1  1  6
  3  2  1  0
  4  3  2  0
  5  2  1  0
  6  5  1  0
  7  6  2  0
  8  6  1  0
  9  7  1  0
 10  8  2  0
 11  9  2  0
 11 10  1  0
 12  3  1  0
 13 12  1  0
 13 14  1  6
 15 14  2  0
 16 13  1  0
 17 16  1  0
 18 17  1  0
 18 12  1  0
 19 14  1  0
 20 19  1  0
 21 20  1  0
 22 21  2  0
 20 23  1  1
 24 21  1  0
 25 24  1  6
 26 25  1  0
 26 27  1  1
 28 26  1  0
 29 28  1  0
 30 29  1  0
 31 29  1  0
 32 29  1  0
 33 25  1  0
 34 33  1  0
 35 33  1  0
 36 35  1  1
 37 36  1  0
 38 37  2  0
 39 36  1  0
 40 39  1  0
 41 39  1  0
 42 37  1  0
M  END
$$$$
6ZOR
     RDKit          3D

 33 37  0  0  0  0  0  0  0  0999 V2000
   17.9890   -9.6390   12.1610 C   0  0  2  0  0  0  0  0  0  0  0  0
   18.9250   -9.3990   13.3390 C   0  0  0  0  0  0  0  0  0  0  0  0
   20.0810  -10.3700   13.3760 C   0  0  0  0  0  0  0  0  0  0  0  0
   22.3180  -10.9280   14.1520 C   0  0  0  0  0  0  0  0  0  0  0  0
   21.2310  -10.0360   14.1220 C   0  0  0  0  0  0  0  0  0  0  0  0
   21.6460   -8.9460   14.9240 C   0  0  0  0  0  0  0  0  0  0  0  0
   18.8480  -11.9790   11.8320 C   0  0  1  0  0  0  0  0  0  0  0  0
   16.5550  -11.3710   11.1220 C   0  0  0  0  0  0  0  0  0  0  0  0
   15.1650  -11.2000   11.6790 C   0  0  1  0  0  0  0  0  0  0  0  0
   18.4540  -13.4050   12.2040 C   0  0  1  0  0  0  0  0  0  0  0  0
   18.6150  -14.4550   11.3030 C   0  0  0  0  0  0  0  0  0  0  0  0
   18.3040  -15.7410   11.7090 C   0  0  0  0  0  0  0  0  0  0  0  0
   17.8490  -15.9620   13.0010 C   0  0  0  0  0  0  0  0  0  0  0  0
   16.4870  -18.6560   15.2910 C   0  0  0  0  0  0  0  0  0  0  0  0
   18.5710  -18.5750   15.4340 C   0  0  0  0  0  0  0  0  0  0  0  0
   17.5340  -20.8030   16.0260 C   0  0  0  0  0  0  0  0  0  0  0  0
   17.3430  -21.5310   17.3460 C   0  0  0  0  0  0  0  0  0  0  0  0
   18.3400  -21.0600   18.4270 C   0  0  0  0  0  0  0  0  0  0  0  0
   17.5010  -19.3360   16.1420 N   0  0  0  0  0  0  0  0  0  0  0  0
   17.4910  -17.5870   14.8700 C   0  0  1  0  0  0  0  0  0  0  0  0
   17.5390  -17.2410   13.4520 N   0  0  0  0  0  0  0  0  0  0  0  0
   17.7300  -14.8520   13.8350 C   0  0  0  0  0  0  0  0  0  0  0  0
   18.0350  -13.6020   13.4640 N   0  0  0  0  0  0  0  0  0  0  0  0
   17.6850  -11.0840   12.0250 N   0  0  0  0  0  0  0  0  0  0  0  0
   14.8960  -12.0630   12.6600 F   0  0  0  0  0  0  0  0  0  0  0  0
   14.9470   -9.9770   12.1660 F   0  0  0  0  0  0  0  0  0  0  0  0
   14.2300  -11.3910   10.7480 F   0  0  0  0  0  0  0  0  0  0  0  0
   18.4780   -8.9680   10.8800 C   0  0  0  0  0  0  0  0  0  0  0  0
   20.0470  -11.6000   12.6860 C   0  0  1  0  0  0  0  0  0  0  0  0
   21.1580  -12.4450   12.7310 C   0  0  0  0  0  0  0  0  0  0  0  0
   22.2930  -12.1390   13.4670 C   0  0  0  0  0  0  0  0  0  0  0  0
   23.2640  -10.3530   14.9360 N   0  0  0  0  0  0  0  0  0  0  0  0
   22.8470   -9.1530   15.4300 N   0  0  0  0  0  0  0  0  0  0  0  0
  2  1  1  0
  3  2  1  0
  5  3  1  0
  5  4  1  0
  6  5  1  0
  9  8  1  0
 10  7  1  0
 10 11  1  1
 12 11  1  0
 13 12  1  0
 17 16  1  0
 18 17  1  0
 19 16  1  0
 19 15  1  0
 19 14  1  0
 20 15  1  0
 20 14  1  0
 20 21  1  6
 21 13  1  0
 22 13  1  0
 23 22  1  0
 23 10  1  0
 24  8  1  0
  7 24  1  1
 24  1  1  0
  9 25  1  1
 26  9  1  0
 27  9  1  0
  1 28  1  6
 29  7  1  0
 29  3  1  0
 29 30  1  6
 31 30  1  0
 31  4  1  0
 32  4  1  0
 33  6  1  0
 33 32  1  0
M  END
$$$$
2Q70
     RDKit          3D

 23 26  0  0  0  0  0  0  0  0999 V2000
   12.2810   50.2890   59.1620 C   0  0  0  0  0  0  0  0  0  0  0  0
   10.5620   51.6960   59.9340 C   0  0  1  0  0  0  0  0  0  0  0  0
   11.4110   52.1380   61.1760 C   0  0  1  0  0  0  0  0  0  0  0  0
   11.2730   51.1800   62.3790 C   0  0  0  0  0  0  0  0  0  0  0  0
   12.9320   52.1570   60.8180 C   0  0  2  0  0  0  0  0  0  0  0  0
   13.2840   51.0830   59.7740 C   0  0  0  0  0  0  0  0  0  0  0  0
    8.3050   50.5220   60.0900 C   0  0  0  0  0  0  0  0  0  0  0  0
    6.9350   50.5270   60.3570 C   0  0  0  0  0  0  0  0  0  0  0  0
    6.3100   51.7130   60.7780 C   0  0  0  0  0  0  0  0  0  0  0  0
    7.0620   52.9010   60.9240 C   0  0  0  0  0  0  0  0  0  0  0  0
   14.9850   49.9060   58.4410 C   0  0  0  0  0  0  0  0  0  0  0  0
   13.9750   49.1260   57.8400 C   0  0  0  0  0  0  0  0  0  0  0  0
   12.6390   49.3120   58.1980 C   0  0  0  0  0  0  0  0  0  0  0  0
   10.9470   50.3950   59.4550 O   0  0  0  0  0  0  0  0  0  0  0  0
   12.5430   51.4310   63.1950 C   0  0  1  0  0  0  0  0  0  0  0  0
   12.3120   52.4470   64.1220 F   0  0  0  0  0  0  0  0  0  0  0  0
   12.9280   50.2730   63.8650 F   0  0  0  0  0  0  0  0  0  0  0  0
   13.6470   51.8440   62.1880 C   0  0  0  0  0  0  0  0  0  0  0  0
   14.6420   50.8900   59.4060 C   0  0  0  0  0  0  0  0  0  0  0  0
    9.0630   51.7050   60.2350 C   0  0  0  0  0  0  0  0  0  0  0  0
    4.9970   51.7140   61.0400 O   0  0  0  0  0  0  0  0  0  0  0  0
    8.4330   52.8970   60.6540 C   0  0  0  0  0  0  0  0  0  0  0  0
   16.2800   49.7080   58.0850 O   0  0  0  0  0  0  0  0  0  0  0  0
  3  2  1  0
  3  4  1  1
  5  3  1  0
  6  1  1  0
  6  5  1  0
  8  7  1  0
  9  8  1  0
 10  9  1  0
 12 11  1  0
 13 12  1  0
 13  1  1  0
 14  2  1  0
 14  1  1  0
 15  4  1  0
 15 16  1  1
 17 15  1  0
 18 15  1  0
  5 18  1  1
 19 11  1  0
 19  6  1  0
  2 20  1  1
 20  7  1  0
 21  9  1  0
 22 20  1  0
 22 10  1  0
 23 11  1  0
M  END
$$$$
5DXR
     RDKit          3D

 79 79  0  0  0  0  0  0  0  0999 V2000
   30.2440   17.8960    6.8010 N   0  0  0  0  0  0  0  0  0  0  0  0
   29.6200   16.6140    6.5000 C   0  0  2  0  0  0  0  0  0  0  0  0
   29.3020   16.4840    5.0130 C   0  0  0  0  0  0  0  0  0  0  0  0
   29.0150   17.4740    4.3410 O   0  0  0  0  0  0  0  0  0  0  0  0
   28.3450   16.4310    7.3290 C   0  0  0  0  0  0  0  0  0  0  0  0
   28.5890   16.3450    8.8290 C   0  0  0  0  0  0  0  0  0  0  0  0
   27.3370   15.9100    9.5770 C   0  0  0  0  0  0  0  0  0  0  0  0
   26.2720   16.9940    9.5610 C   0  0  0  0  0  0  0  0  0  0  0  0
   25.4150   16.9620   10.7790 N   0  0  0  0  0  0  0  0  0  0  0  0
   29.3600   15.2540    4.5100 N   0  0  0  0  0  0  0  0  0  0  0  0
   29.0450   14.9640    3.1150 C   0  0  2  0  0  0  0  0  0  0  0  0
   27.6030   15.3420    2.7920 C   0  0  0  0  0  0  0  0  0  0  0  0
   27.3070   15.8450    1.7060 O   0  0  0  0  0  0  0  0  0  0  0  0
   29.2700   13.4710    2.7910 C   0  0  2  0  0  0  0  0  0  0  0  0
   30.7290   13.0840    3.0430 C   0  0  0  0  0  0  0  0  0  0  0  0
   28.8830   13.1600    1.3550 C   0  0  0  0  0  0  0  0  0  0  0  0
   31.0250   11.6210    2.7890 C   0  0  0  0  0  0  0  0  0  0  0  0
   26.7150   15.1090    3.7550 N   0  0  0  0  0  0  0  0  0  0  0  0
   25.2910   15.3810    3.5920 C   0  0  2  0  0  0  0  0  0  0  0  0
   25.0220   16.8470    3.2580 C   0  0  0  0  0  0  0  0  0  0  0  0
   24.1080   17.1570    2.4920 O   0  0  0  0  0  0  0  0  0  0  0  0
   24.5320   14.9810    4.8590 C   0  0  0  0  0  0  0  0  0  0  0  0
   23.0040   15.0240    4.7940 C   0  0  0  0  0  0  0  0  0  0  0  0
   22.5030   14.2670    3.5810 C   0  0  0  0  0  0  0  0  0  0  0  0
   22.4040   14.4460    6.0630 C   0  0  0  0  0  0  0  0  0  0  0  0
   25.8190   17.7420    3.8390 N   0  0  0  0  0  0  0  0  0  0  0  0
   25.7500   19.1640    3.5140 C   0  0  2  0  0  0  0  0  0  0  0  0
   25.9400   19.3880    2.0190 C   0  0  0  0  0  0  0  0  0  0  0  0
   25.0810   19.9590    1.3490 O   0  0  0  0  0  0  0  0  0  0  0  0
   26.8120   19.9550    4.2820 C   0  0  0  0  0  0  0  0  0  0  0  0
   26.4870   20.1780    5.7260 C   0  0  0  0  0  0  0  0  0  0  0  0
   27.1080   19.4880    6.7440 N   0  0  0  0  0  0  0  0  0  0  0  0
   25.6170   21.0270    6.3230 C   0  0  0  0  0  0  0  0  0  0  0  0
   26.6310   19.8990    7.9060 C   0  0  0  0  0  0  0  0  0  0  0  0
   25.7230   20.8300    7.6780 N   0  0  0  0  0  0  0  0  0  0  0  0
   27.0790   18.9210    1.5160 N   0  0  0  0  0  0  0  0  0  0  0  0
   27.4720   19.0990    0.1220 C   0  0  2  0  0  0  0  0  0  0  0  0
   26.4300   18.5750   -0.8610 C   0  0  0  0  0  0  0  0  0  0  0  0
   26.1430   19.2120   -1.8740 O   0  0  0  0  0  0  0  0  0  0  0  0
   28.8100   18.4000   -0.1280 C   0  0  0  0  0  0  0  0  0  0  0  0
   29.4700   18.7440   -1.4500 C   0  0  0  0  0  0  0  0  0  0  0  0
   30.5670   17.7440   -1.7760 C   0  0  0  0  0  0  0  0  0  0  0  0
   30.0240   16.4820   -2.2750 N   0  0  0  0  0  0  0  0  0  0  0  0
   30.7170   15.3510   -2.3570 C   0  0  0  0  0  0  0  0  0  0  0  0
   31.9810   15.3170   -1.9590 N   0  0  0  0  0  0  0  0  0  0  0  0
   30.1460   14.2510   -2.8270 N   0  0  0  0  0  0  0  0  0  0  0  0
   25.8670   17.4130   -0.5510 N   0  0  0  0  0  0  0  0  0  0  0  0
   24.9470   16.7380   -1.4610 C   0  0  2  0  0  0  0  0  0  0  0  0
   23.5910   17.4360   -1.5220 C   0  0  0  0  0  0  0  0  0  0  0  0
   22.9230   17.4180   -2.5560 O   0  0  0  0  0  0  0  0  0  0  0  0
   24.7720   15.2720   -1.0480 C   0  0  0  0  0  0  0  0  0  0  0  0
   25.7520   14.2570   -1.6530 C   0  0  0  0  0  0  0  0  0  0  0  0
   27.1930   14.7200   -1.5220 C   0  0  0  0  0  0  0  0  0  0  0  0
   25.5840   12.8860   -1.0160 C   0  0  0  0  0  0  0  0  0  0  0  0
   23.1920   18.0540   -0.4160 N   0  0  0  0  0  0  0  0  0  0  0  0
   21.9280   18.7810   -0.3600 C   0  0  2  0  0  0  0  0  0  0  0  0
   22.0110   20.1120   -1.1020 C   0  0  0  0  0  0  0  0  0  0  0  0
   20.9940   20.6510   -1.5390 O   0  0  0  0  0  0  0  0  0  0  0  0
   21.5090   19.0180    1.0920 C   0  0  0  0  0  0  0  0  0  0  0  0
   20.8030   17.8600    1.7980 C   0  0  0  0  0  0  0  0  0  0  0  0
   20.8110   18.0660    3.3040 C   0  0  0  0  0  0  0  0  0  0  0  0
   19.3780   17.7160    1.2860 C   0  0  0  0  0  0  0  0  0  0  0  0
   23.2230   20.6390   -1.2410 N   0  0  0  0  0  0  0  0  0  0  0  0
   23.4230   21.9160   -1.9170 C   0  0  2  0  0  0  0  0  0  0  0  0
   23.4270   21.7610   -3.4340 C   0  0  0  0  0  0  0  0  0  0  0  0
   23.0210   22.6720   -4.1560 O   0  0  0  0  0  0  0  0  0  0  0  0
   24.7300   22.5680   -1.4630 C   0  0  0  0  0  0  0  0  0  0  0  0
   24.8150   22.8280    0.0290 C   0  0  0  0  0  0  0  0  0  0  0  0
   25.8190   23.9100    0.3710 C   0  0  0  0  0  0  0  0  0  0  0  0
   25.4750   25.0890    0.4500 O   0  0  0  0  0  0  0  0  0  0  0  0
   27.0710   23.5140    0.5670 N   0  0  0  0  0  0  0  0  0  0  0  0
   23.8920   20.6070   -3.9070 N   0  0  0  0  0  0  0  0  0  0  0  0
   23.9800   20.3260   -5.3390 C   0  0  2  0  0  0  0  0  0  0  0  0
   22.6560   20.5510   -6.0630 C   0  0  0  0  0  0  0  0  0  0  0  0
   22.5500   21.4440   -6.9070 O   0  0  0  0  0  0  0  0  0  0  0  0
   24.4550   18.8900   -5.5710 C   0  0  0  0  0  0  0  0  0  0  0  0
   25.9670   18.7630   -5.5510 C   0  0  0  0  0  0  0  0  0  0  0  0
   26.6230   19.4910   -4.7770 O   0  0  0  0  0  0  0  0  0  0  0  0
   26.5020   17.9340   -6.3170 O   0  0  0  0  0  0  0  0  0  0  0  0
  2  1  1  6
  3  2  1  0
  4  3  2  0
  5  2  1  0
  6  5  1  0
  7  6  1  0
  8  7  1  0
  9  8  1  0
 10  3  1  0
 11 10  1  1
 12 11  1  0
 13 12  2  0
 14 11  1  0
 15 14  1  0
 14 16  1  6
 17 15  1  0
 18 12  1  0
 19 18  1  0
 20 19  1  0
 21 20  2  0
 19 22  1  1
 23 22  1  0
 24 23  1  0
 25 23  1  0
 26 20  1  0
 27 26  1  0
 28 27  1  0
 29 28  2  0
 27 30  1  1
 31 30  1  0
 32 31  1  0
 33 31  2  0
 34 32  2  0
 35 34  1  0
 35 33  1  0
 36 28  1  0
 37 36  1  0
 38 37  1  0
 39 38  2  0
 37 40  1  1
 41 40  1  0
 42 41  1  0
 43 42  1  0
 44 43  1  0
 45 44  1  0
 46 44  2  0
 47 38  1  0
 48 47  1  0
 49 48  1  0
 50 49  2  0
 48 51  1  1
 52 51  1  0
 53 52  1  0
 54 52  1  0
 55 49  1  0
 56 55  1  0
 57 56  1  0
 58 57  2  0
 56 59  1  1
 60 59  1  0
 61 60  1  0
 62 60  1  0
 63 57  1  0
 64 63  1  0
 65 64  1  0
 66 65  2  0
 64 67  1  1
 68 67  1  0
 69 68  1  0
 70 69  2  0
 71 69  1  0
 72 65  1  0
 73 72  1  0
 74 73  1  0
 75 74  2  0
 73 76  1  1
 77 76  1  0
 78 77  2  0
 79 77  1  0
M  END
$$$$
5DXE
     RDKit          3D

 20 23  0  0  0  0  0  0  0  0999 V2000
   24.0900   -1.6780    4.2190 C   0  0  0  0  0  0  0  0  0  0  0  0
   23.2930   -1.4200    3.1410 C   0  0  0  0  0  0  0  0  0  0  0  0
   21.9220   -1.5480    3.2700 C   0  0  0  0  0  0  0  0  0  0  0  0
   21.1260   -1.3140    2.2330 O   0  0  0  0  0  0  0  0  0  0  0  0
   21.3740   -1.9090    4.4720 C   0  0  0  0  0  0  0  0  0  0  0  0
   22.1490   -2.1810    5.5330 C   0  0  0  0  0  0  0  0  0  0  0  0
   21.5590   -2.5870    6.8560 C   0  0  0  0  0  0  0  0  0  0  0  0
   22.5210   -3.2610    7.8010 C   0  0  0  0  0  0  0  0  0  0  0  0
   23.7140   -2.3390    7.8950 C   0  0  2  0  0  0  0  0  0  0  0  0
   24.4390   -2.3330    6.5500 C   0  0  1  0  0  0  0  0  0  0  0  0
   23.5800   -2.0420    5.4170 C   0  0  0  0  0  0  0  0  0  0  0  0
   25.6330   -1.3820    6.6570 C   0  0  0  0  0  0  0  0  0  0  0  0
   26.5510   -1.7330    7.8260 C   0  0  0  0  0  0  0  0  0  0  0  0
   25.8280   -1.8770    9.1330 C   0  0  1  0  0  0  0  0  0  0  0  0
   24.6620   -2.8170    8.9250 C   0  0  1  0  0  0  0  0  0  0  0  0
   24.1120   -2.9840   10.3240 C   0  0  0  0  0  0  0  0  0  0  0  0
   25.3880   -2.9350   11.1580 C   0  0  0  0  0  0  0  0  0  0  0  0
   26.5410   -2.6320   10.2050 C   0  0  2  0  0  0  0  0  0  0  0  0
   27.5140   -1.8510   10.8390 O   0  0  0  0  0  0  0  0  0  0  0  0
   25.4310   -0.5040    9.6630 C   0  0  0  0  0  0  0  0  0  0  0  0
  2  1  1  0
  3  2  1  0
  4  3  1  0
  5  3  1  0
  6  5  1  0
  7  6  1  0
  8  7  1  0
  9  8  1  6
 10  9  1  0
 11  1  1  0
 11 10  1  0
 11  6  1  0
 10 12  1  1
 13 12  1  0
 14 13  1  0
 15 14  1  0
 15  9  1  0
 15 16  1  1
 17 16  1  0
 18 14  1  0
 18 17  1  0
 18 19  1  1
 14 20  1  1
M  END
$$$$
6DFN
     RDKit          3D

 71 70  0  0  0  0  0  0  0  0999 V2000
  -79.7900  -10.3930  -50.4660 N   0  0  0  0  0  0  0  0  0  0  0  0
  -80.1430   -9.2850  -49.5820 C   0  0  2  0  0  0  0  0  0  0  0  0
  -79.8790   -9.5860  -48.1000 C   0  0  0  0  0  0  0  0  0  0  0  0
  -79.5860  -10.7280  -47.7170 O   0  0  0  0  0  0  0  0  0  0  0  0
  -81.6200   -8.9250  -49.7610 C   0  0  0  0  0  0  0  0  0  0  0  0
  -82.4490  -10.0330  -49.4500 O   0  0  0  0  0  0  0  0  0  0  0  0
  -80.0010   -8.5380  -47.2820 N   0  0  0  0  0  0  0  0  0  0  0  0
  -79.9070   -8.6250  -45.8240 C   0  0  2  0  0  0  0  0  0  0  0  0
  -80.9970   -9.5360  -45.2580 C   0  0  0  0  0  0  0  0  0  0  0  0
  -80.7190  -10.3830  -44.4110 O   0  0  0  0  0  0  0  0  0  0  0  0
  -80.0270   -7.2220  -45.2070 C   0  0  0  0  0  0  0  0  0  0  0  0
  -82.2310   -9.3060  -45.7090 N   0  0  0  0  0  0  0  0  0  0  0  0
  -83.3970  -10.0700  -45.2530 C   0  0  2  0  0  0  0  0  0  0  0  0
  -83.2660  -11.5580  -45.5820 C   0  0  0  0  0  0  0  0  0  0  0  0
  -83.5660  -12.4090  -44.7410 O   0  0  0  0  0  0  0  0  0  0  0  0
  -84.6960   -9.5170  -45.8700 C   0  0  0  0  0  0  0  0  0  0  0  0
  -85.0670   -8.1410  -45.3410 C   0  0  0  0  0  0  0  0  0  0  0  0
  -84.1560   -7.3320  -45.0560 O   0  0  0  0  0  0  0  0  0  0  0  0
  -86.2790   -7.8610  -45.2240 O   0  0  0  0  0  0  0  0  0  0  0  0
  -82.8180  -11.8590  -46.8040 N   0  0  0  0  0  0  0  0  0  0  0  0
  -82.5920  -13.2470  -47.2360 C   0  0  2  0  0  0  0  0  0  0  0  0
  -81.5710  -13.9630  -46.3470 C   0  0  0  0  0  0  0  0  0  0  0  0
  -81.8130  -15.0890  -45.9000 O   0  0  0  0  0  0  0  0  0  0  0  0
  -82.1330  -13.3010  -48.6990 C   0  0  0  0  0  0  0  0  0  0  0  0
  -80.4430  -13.3040  -46.0930 N   0  0  0  0  0  0  0  0  0  0  0  0
  -79.3850  -13.8690  -45.2370 C   0  0  2  0  0  0  0  0  0  0  0  0
  -79.8130  -14.0330  -43.7750 C   0  0  0  0  0  0  0  0  0  0  0  0
  -79.4100  -14.9960  -43.1230 O   0  0  0  0  0  0  0  0  0  0  0  0
  -78.0970  -13.0330  -45.3310 C   0  0  0  0  0  0  0  0  0  0  0  0
  -77.3070  -13.2280  -46.6470 C   0  0  0  0  0  0  0  0  0  0  0  0
  -76.2800  -12.1410  -46.8640 C   0  0  0  0  0  0  0  0  0  0  0  0
  -76.6150  -14.5920  -46.6960 C   0  0  0  0  0  0  0  0  0  0  0  0
  -80.6210  -13.1000  -43.2740 N   0  0  0  0  0  0  0  0  0  0  0  0
  -81.1780  -13.1870  -41.9120 C   0  0  2  0  0  0  0  0  0  0  0  0
  -82.2170  -14.2970  -41.7700 C   0  0  0  0  0  0  0  0  0  0  0  0
  -82.3180  -14.9130  -40.7070 O   0  0  0  0  0  0  0  0  0  0  0  0
  -81.7660  -11.8390  -41.4860 C   0  0  0  0  0  0  0  0  0  0  0  0
  -82.4140  -11.6820  -40.1040 C   0  0  0  0  0  0  0  0  0  0  0  0
  -81.5670  -12.2050  -38.9520 C   0  0  0  0  0  0  0  0  0  0  0  0
  -82.7490  -10.2190  -39.9010 C   0  0  0  0  0  0  0  0  0  0  0  0
  -82.9880  -14.5430  -42.8320 N   0  0  0  0  0  0  0  0  0  0  0  0
  -83.9150  -15.6760  -42.8740 C   0  0  2  0  0  0  0  0  0  0  0  0
  -83.1590  -17.0080  -42.8180 C   0  0  0  0  0  0  0  0  0  0  0  0
  -83.4920  -17.8790  -42.0050 O   0  0  0  0  0  0  0  0  0  0  0  0
  -84.7870  -15.6150  -44.1310 C   0  0  0  0  0  0  0  0  0  0  0  0
  -82.1380  -17.1470  -43.6660 N   0  0  0  0  0  0  0  0  0  0  0  0
  -81.3380  -18.3770  -43.7390 C   0  0  2  0  0  0  0  0  0  0  0  0
  -80.5860  -18.6820  -42.4400 C   0  0  0  0  0  0  0  0  0  0  0  0
  -80.5200  -19.8390  -42.0260 O   0  0  0  0  0  0  0  0  0  0  0  0
  -80.3340  -18.3090  -44.9010 C   0  0  0  0  0  0  0  0  0  0  0  0
  -80.9580  -18.3010  -46.2800 C   0  0  0  0  0  0  0  0  0  0  0  0
  -79.7670  -17.7930  -47.5320 S   0  0  0  0  0  0  0  0  0  0  0  0
  -78.8210  -19.3220  -47.7060 C   0  0  0  0  0  0  0  0  0  0  0  0
  -80.0320  -17.6450  -41.8090 N   0  0  0  0  0  0  0  0  0  0  0  0
  -79.2670  -17.7920  -40.5540 C   0  0  2  0  0  0  0  0  0  0  0  0
  -80.0980  -18.3480  -39.3860 C   0  0  0  0  0  0  0  0  0  0  0  0
  -79.5910  -19.1530  -38.6000 O   0  0  0  0  0  0  0  0  0  0  0  0
  -78.6460  -16.4480  -40.1390 C   0  0  0  0  0  0  0  0  0  0  0  0
  -81.3570  -17.9180  -39.2770 N   0  0  0  0  0  0  0  0  0  0  0  0
  -82.2650  -18.3910  -38.2180 C   0  0  2  0  0  0  0  0  0  0  0  0
  -82.5420  -19.9050  -38.2720 C   0  0  0  0  0  0  0  0  0  0  0  0
  -82.7440  -20.5250  -37.2190 O   0  0  0  0  0  0  0  0  0  0  0  0
  -83.5950  -17.6220  -38.2510 C   0  0  0  0  0  0  0  0  0  0  0  0
  -83.4530  -16.1700  -37.8050 C   0  0  0  0  0  0  0  0  0  0  0  0
  -82.3160  -15.6430  -37.7680 O   0  0  0  0  0  0  0  0  0  0  0  0
  -84.4920  -15.5470  -37.4950 O   0  0  0  0  0  0  0  0  0  0  0  0
  -82.5390  -20.4740  -39.4780 N   0  0  0  0  0  0  0  0  0  0  0  0
  -82.7010  -21.9190  -39.6740 C   0  0  2  0  0  0  0  0  0  0  0  0
  -81.4360  -22.6410  -39.1930 C   0  0  0  0  0  0  0  0  0  0  0  0
  -81.3520  -23.0550  -38.0330 O   0  0  0  0  0  0  0  0  0  0  0  0
  -82.9670  -22.1980  -41.1390 C   0  0  0  0  0  0  0  0  0  0  0  0
  2  1  1  6
  3  2  1  0
  4  3  2  0
  5  2  1  0
  6  5  1  0
  7  3  1  0
  8  7  1  0
  9  8  1  0
 10  9  2  0
  8 11  1  1
 12  9  1  0
 13 12  1  0
 14 13  1  0
 15 14  2  0
 13 16  1  6
 17 16  1  0
 18 17  2  0
 19 17  1  0
 20 14  1  0
 21 20  1  0
 22 21  1  0
 23 22  2  0
 21 24  1  6
 25 22  1  0
 26 25  1  0
 27 26  1  0
 28 27  2  0
 26 29  1  1
 30 29  1  0
 31 30  1  0
 32 30  1  0
 33 27  1  0
 34 33  1  0
 35 34  1  0
 36 35  2  0
 34 37  1  6
 38 37  1  0
 39 38  1  0
 40 38  1  0
 41 35  1  0
 42 41  1  0
 43 42  1  0
 44 43  2  0
 42 45  1  6
 46 43  1  0
 47 46  1  0
 48 47  1  0
 49 48  2  0
 47 50  1  6
 51 50  1  0
 52 51  1  0
 53 52  1  0
 54 48  1  0
 55 54  1  0
 56 55  1  0
 57 56  2  0
 55 58  1  1
 59 56  1  0
 60 59  1  0
 61 60  1  0
 62 61  2  0
 60 63  1  6
 64 63  1  0
 65 64  2  0
 66 64  1  0
 67 61  1  0
 68 67  1  0
 69 68  1  0
 70 69  2  0
 68 71  1  6
M  END
$$$$
4ZNS
     RDKit          3D

 79 79  0  0  0  0  0  0  0  0999 V2000
   -6.3490  -40.8130  -33.7630 N   0  0  0  0  0  0  0  0  0  0  0  0
   -6.6800  -39.3990  -33.8930 C   0  0  2  0  0  0  0  0  0  0  0  0
   -5.7480  -38.7010  -34.8740 C   0  0  0  0  0  0  0  0  0  0  0  0
   -4.5880  -39.0780  -35.0210 O   0  0  0  0  0  0  0  0  0  0  0  0
   -6.6350  -38.7020  -32.5300 C   0  0  0  0  0  0  0  0  0  0  0  0
   -7.7330  -39.1510  -31.5780 C   0  0  0  0  0  0  0  0  0  0  0  0
   -7.9510  -38.1570  -30.4440 C   0  0  0  0  0  0  0  0  0  0  0  0
   -7.2330  -38.5810  -29.1730 C   0  0  0  0  0  0  0  0  0  0  0  0
   -7.7160  -37.8150  -27.9880 N   0  0  0  0  0  0  0  0  0  0  0  0
   -6.2680  -37.6840  -35.5490 N   0  0  0  0  0  0  0  0  0  0  0  0
   -5.4780  -36.9210  -36.5020 C   0  0  2  0  0  0  0  0  0  0  0  0
   -4.2970  -36.2490  -35.8180 C   0  0  0  0  0  0  0  0  0  0  0  0
   -3.1480  -36.4310  -36.2200 O   0  0  0  0  0  0  0  0  0  0  0  0
   -6.3290  -35.8490  -37.1820 C   0  0  2  0  0  0  0  0  0  0  0  0
   -7.4240  -36.5100  -38.0180 C   0  0  0  0  0  0  0  0  0  0  0  0
   -5.4570  -34.9410  -38.0360 C   0  0  0  0  0  0  0  0  0  0  0  0
   -8.3780  -35.5320  -38.6400 C   0  0  0  0  0  0  0  0  0  0  0  0
   -4.5920  -35.4650  -34.7870 N   0  0  0  0  0  0  0  0  0  0  0  0
   -3.5590  -34.8180  -33.9910 C   0  0  2  0  0  0  0  0  0  0  0  0
   -2.4820  -35.8330  -33.6330 C   0  0  0  0  0  0  0  0  0  0  0  0
   -1.2860  -35.5460  -33.6990 O   0  0  0  0  0  0  0  0  0  0  0  0
   -4.1730  -34.2280  -32.7220 C   0  0  0  0  0  0  0  0  0  0  0  0
   -3.2210  -33.6700  -31.6640 C   0  0  0  0  0  0  0  0  0  0  0  0
   -2.3050  -32.6130  -32.2620 C   0  0  0  0  0  0  0  0  0  0  0  0
   -4.0120  -33.1050  -30.4940 C   0  0  0  0  0  0  0  0  0  0  0  0
   -2.9310  -37.0260  -33.2590 N   0  0  0  0  0  0  0  0  0  0  0  0
   -2.0550  -38.1480  -32.9530 C   0  0  2  0  0  0  0  0  0  0  0  0
   -1.0990  -38.4200  -34.1120 C   0  0  0  0  0  0  0  0  0  0  0  0
    0.0950  -38.6380  -33.9090 O   0  0  0  0  0  0  0  0  0  0  0  0
   -2.9140  -39.3830  -32.6610 C   0  0  0  0  0  0  0  0  0  0  0  0
   -2.1340  -40.6420  -32.4550 C   0  0  0  0  0  0  0  0  0  0  0  0
   -0.7960  -40.6500  -32.1210 N   0  0  0  0  0  0  0  0  0  0  0  0
   -2.5090  -41.9410  -32.5330 C   0  0  0  0  0  0  0  0  0  0  0  0
   -0.3820  -41.8980  -32.0040 C   0  0  0  0  0  0  0  0  0  0  0  0
   -1.4020  -42.7020  -32.2490 N   0  0  0  0  0  0  0  0  0  0  0  0
   -1.6340  -38.3890  -35.3290 N   0  0  0  0  0  0  0  0  0  0  0  0
   -0.8480  -38.6620  -36.5260 C   0  0  2  0  0  0  0  0  0  0  0  0
    0.1790  -37.5710  -36.8060 C   0  0  0  0  0  0  0  0  0  0  0  0
    1.3730  -37.8460  -36.9280 O   0  0  0  0  0  0  0  0  0  0  0  0
   -1.7680  -38.8110  -37.7380 C   0  0  0  0  0  0  0  0  0  0  0  0
   -1.0250  -39.0050  -39.0470 C   0  0  0  0  0  0  0  0  0  0  0  0
   -1.6300  -38.1620  -40.1550 C   0  0  0  0  0  0  0  0  0  0  0  0
   -3.0150  -38.5280  -40.4350 N   0  0  0  0  0  0  0  0  0  0  0  0
   -3.8010  -37.8720  -41.2810 C   0  0  0  0  0  0  0  0  0  0  0  0
   -5.0490  -38.2730  -41.4780 N   0  0  0  0  0  0  0  0  0  0  0  0
   -3.3390  -36.8120  -41.9290 N   0  0  0  0  0  0  0  0  0  0  0  0
   -0.2980  -36.3340  -36.9170 N   0  0  0  0  0  0  0  0  0  0  0  0
    0.5500  -35.2010  -37.2760 C   0  0  2  0  0  0  0  0  0  0  0  0
    1.7280  -35.0420  -36.3190 C   0  0  0  0  0  0  0  0  0  0  0  0
    2.8360  -34.7030  -36.7340 O   0  0  0  0  0  0  0  0  0  0  0  0
   -0.2770  -33.9150  -37.3250 C   0  0  0  0  0  0  0  0  0  0  0  0
   -1.4800  -33.9600  -38.2700 C   0  0  0  0  0  0  0  0  0  0  0  0
   -2.3340  -32.7120  -38.1210 C   0  0  0  0  0  0  0  0  0  0  0  0
   -1.0290  -34.1400  -39.7130 C   0  0  0  0  0  0  0  0  0  0  0  0
    1.4830  -35.2840  -35.0360 N   0  0  0  0  0  0  0  0  0  0  0  0
    2.5490  -35.2850  -34.0410 C   0  0  2  0  0  0  0  0  0  0  0  0
    3.5150  -36.4340  -34.2960 C   0  0  0  0  0  0  0  0  0  0  0  0
    4.7000  -36.3550  -33.9670 O   0  0  0  0  0  0  0  0  0  0  0  0
    1.9590  -35.4300  -32.6380 C   0  0  0  0  0  0  0  0  0  0  0  0
    1.3090  -34.1990  -32.0090 C   0  0  0  0  0  0  0  0  0  0  0  0
    0.5320  -34.5910  -30.7630 C   0  0  0  0  0  0  0  0  0  0  0  0
    2.3650  -33.1550  -31.6840 C   0  0  0  0  0  0  0  0  0  0  0  0
    2.9900  -37.5010  -34.8900 N   0  0  0  0  0  0  0  0  0  0  0  0
    3.7130  -38.7580  -35.0420 C   0  0  2  0  0  0  0  0  0  0  0  0
    4.5870  -38.7480  -36.2940 C   0  0  0  0  0  0  0  0  0  0  0  0
    5.5300  -39.5310  -36.4040 O   0  0  0  0  0  0  0  0  0  0  0  0
    2.7150  -39.9230  -35.1080 C   0  0  0  0  0  0  0  0  0  0  0  0
    3.1980  -41.2550  -34.5110 C   0  0  0  0  0  0  0  0  0  0  0  0
    2.2160  -42.3950  -34.7680 C   0  0  0  0  0  0  0  0  0  0  0  0
    1.2920  -42.2570  -35.5710 O   0  0  0  0  0  0  0  0  0  0  0  0
    2.4110  -43.5210  -34.0880 N   0  0  0  0  0  0  0  0  0  0  0  0
    4.2720  -37.8630  -37.2370 N   0  0  0  0  0  0  0  0  0  0  0  0
    5.0390  -37.7740  -38.4820 C   0  0  2  0  0  0  0  0  0  0  0  0
    6.5000  -37.3920  -38.2490 C   0  0  0  0  0  0  0  0  0  0  0  0
    7.3910  -37.8400  -38.9750 O   0  0  0  0  0  0  0  0  0  0  0  0
    4.3910  -36.7930  -39.4660 C   0  0  0  0  0  0  0  0  0  0  0  0
    3.0590  -37.2910  -39.9940 C   0  0  0  0  0  0  0  0  0  0  0  0
    2.9070  -38.5210  -40.1520 O   0  0  0  0  0  0  0  0  0  0  0  0
    2.1660  -36.4560  -40.2490 O   0  0  0  0  0  0  0  0  0  0  0  0
  2  1  1  1
  3  2  1  0
  4  3  2  0
  5  2  1  0
  6  5  1  0
  7  6  1  0
  8  7  1  0
  9  8  1  0
 10  3  1  0
 11 10  1  1
 12 11  1  0
 13 12  2  0
 14 11  1  0
 15 14  1  0
 14 16  1  6
 17 15  1  0
 18 12  1  0
 19 18  1  0
 20 19  1  0
 21 20  2  0
 19 22  1  1
 23 22  1  0
 24 23  1  0
 25 23  1  0
 26 20  1  0
 27 26  1  0
 28 27  1  0
 29 28  2  0
 27 30  1  6
 31 30  1  0
 32 31  1  0
 33 31  2  0
 34 32  2  0
 35 34  1  0
 35 33  1  0
 36 28  1  0
 37 36  1  0
 38 37  1  0
 39 38  2  0
 37 40  1  6
 41 40  1  0
 42 41  1  0
 43 42  1  0
 44 43  1  0
 45 44  1  0
 46 44  2  0
 47 38  1  0
 48 47  1  0
 49 48  1  0
 50 49  2  0
 48 51  1  1
 52 51  1  0
 53 52  1  0
 54 52  1  0
 55 49  1  0
 56 55  1  0
 57 56  1  0
 58 57  2  0
 56 59  1  1
 60 59  1  0
 61 60  1  0
 62 60  1  0
 63 57  1  0
 64 63  1  0
 65 64  1  0
 66 65  2  0
 64 67  1  6
 68 67  1  0
 69 68  1  0
 70 69  2  0
 71 69  1  0
 72 65  1  0
 73 72  1  0
 74 73  1  0
 75 74  2  0
 73 76  1  6
 77 76  1  0
 78 77  2  0
 79 77  1  0
M  END
$$$$
5KRI
     RDKit          3D

 73 73  0  0  0  0  0  0  0  0999 V2000
   -6.5880  -41.1230  -34.8830 N   0  0  0  0  0  0  0  0  0  0  0  0
   -6.4480  -39.8410  -34.2040 C   0  0  2  0  0  0  0  0  0  0  0  0
   -5.4920  -38.9480  -34.9870 C   0  0  0  0  0  0  0  0  0  0  0  0
   -4.2850  -39.1900  -35.0050 O   0  0  0  0  0  0  0  0  0  0  0  0
   -5.9540  -40.0430  -32.7690 C   0  0  0  0  0  0  0  0  0  0  0  0
   -6.4850  -39.0170  -31.7830 C   0  0  0  0  0  0  0  0  0  0  0  0
   -6.1630  -39.4030  -30.3500 C   0  0  0  0  0  0  0  0  0  0  0  0
   -6.9370  -38.5400  -29.3700 C   0  0  0  0  0  0  0  0  0  0  0  0
   -6.5950  -38.8430  -27.9520 N   0  0  0  0  0  0  0  0  0  0  0  0
   -6.0480  -37.9170  -35.6330 N   0  0  0  0  0  0  0  0  0  0  0  0
   -5.2690  -37.0840  -36.5520 C   0  0  2  0  0  0  0  0  0  0  0  0
   -4.0550  -36.4910  -35.8500 C   0  0  0  0  0  0  0  0  0  0  0  0
   -2.9310  -36.5390  -36.3640 O   0  0  0  0  0  0  0  0  0  0  0  0
   -6.1520  -35.9790  -37.1580 C   0  0  2  0  0  0  0  0  0  0  0  0
   -7.3450  -36.5840  -37.9050 C   0  0  0  0  0  0  0  0  0  0  0  0
   -5.3420  -35.1120  -38.1050 C   0  0  0  0  0  0  0  0  0  0  0  0
   -8.2230  -35.5570  -38.5920 C   0  0  0  0  0  0  0  0  0  0  0  0
   -4.2680  -35.9200  -34.6620 N   0  0  0  0  0  0  0  0  0  0  0  0
   -3.1720  -35.2990  -33.9230 C   0  0  2  0  0  0  0  0  0  0  0  0
   -2.0590  -36.2980  -33.6380 C   0  0  0  0  0  0  0  0  0  0  0  0
   -0.8720  -35.9660  -33.7430 O   0  0  0  0  0  0  0  0  0  0  0  0
   -3.7000  -34.6960  -32.6230 C   0  0  0  0  0  0  0  0  0  0  0  0
   -2.6650  -34.1590  -31.6370 C   0  0  0  0  0  0  0  0  0  0  0  0
   -1.8320  -33.0600  -32.2730 C   0  0  0  0  0  0  0  0  0  0  0  0
   -3.3500  -33.6550  -30.3810 C   0  0  0  0  0  0  0  0  0  0  0  0
   -2.4300  -37.5280  -33.2730 N   0  0  0  0  0  0  0  0  0  0  0  0
   -1.4510  -38.5970  -33.1000 C   0  0  2  0  0  0  0  0  0  0  0  0
   -0.6120  -38.7750  -34.3600 C   0  0  0  0  0  0  0  0  0  0  0  0
    0.6170  -38.8910  -34.2920 O   0  0  0  0  0  0  0  0  0  0  0  0
   -2.1720  -39.8990  -32.7390 C   0  0  0  0  0  0  0  0  0  0  0  0
   -1.3250  -40.8860  -31.9970 C   0  0  0  0  0  0  0  0  0  0  0  0
   -1.7190  -42.1900  -31.7870 N   0  0  0  0  0  0  0  0  0  0  0  0
   -0.1160  -40.7580  -31.4010 C   0  0  0  0  0  0  0  0  0  0  0  0
   -0.7850  -42.8250  -31.1000 C   0  0  0  0  0  0  0  0  0  0  0  0
    0.1980  -41.9790  -30.8530 N   0  0  0  0  0  0  0  0  0  0  0  0
   -1.2610  -38.7810  -35.5250 N   0  0  0  0  0  0  0  0  0  0  0  0
   -0.5410  -38.9540  -36.7820 C   0  0  2  0  0  0  0  0  0  0  0  0
    0.3850  -37.7750  -37.0520 C   0  0  0  0  0  0  0  0  0  0  0  0
    1.5860  -37.9520  -37.2680 O   0  0  0  0  0  0  0  0  0  0  0  0
   -1.5320  -39.1380  -37.9330 C   0  0  0  0  0  0  0  0  0  0  0  0
   -0.1580  -36.5550  -37.0370 N   0  0  0  0  0  0  0  0  0  0  0  0
    0.6580  -35.3800  -37.3340 C   0  0  2  0  0  0  0  0  0  0  0  0
    1.8310  -35.2450  -36.3720 C   0  0  0  0  0  0  0  0  0  0  0  0
    2.8710  -34.6850  -36.7370 O   0  0  0  0  0  0  0  0  0  0  0  0
   -0.2100  -34.1220  -37.3080 C   0  0  0  0  0  0  0  0  0  0  0  0
   -1.2340  -34.0260  -38.4380 C   0  0  0  0  0  0  0  0  0  0  0  0
   -2.2950  -32.9980  -38.1040 C   0  0  0  0  0  0  0  0  0  0  0  0
   -0.5510  -33.6810  -39.7550 C   0  0  0  0  0  0  0  0  0  0  0  0
    1.6910  -35.7570  -35.1480 N   0  0  0  0  0  0  0  0  0  0  0  0
    2.8340  -35.8220  -34.2450 C   0  0  2  0  0  0  0  0  0  0  0  0
    3.8010  -36.9310  -34.6490 C   0  0  0  0  0  0  0  0  0  0  0  0
    5.0190  -36.7730  -34.5170 O   0  0  0  0  0  0  0  0  0  0  0  0
    2.3530  -36.0120  -32.8040 C   0  0  0  0  0  0  0  0  0  0  0  0
    1.9060  -34.7360  -32.0860 C   0  0  0  0  0  0  0  0  0  0  0  0
    1.0330  -35.0680  -30.8920 C   0  0  0  0  0  0  0  0  0  0  0  0
    3.1130  -33.9230  -31.6460 C   0  0  0  0  0  0  0  0  0  0  0  0
    3.2810  -38.0530  -35.1450 N   0  0  0  0  0  0  0  0  0  0  0  0
    4.1260  -39.1150  -35.6830 C   0  0  2  0  0  0  0  0  0  0  0  0
    4.7020  -38.6890  -37.0280 C   0  0  0  0  0  0  0  0  0  0  0  0
    3.9580  -38.5030  -37.9940 O   0  0  0  0  0  0  0  0  0  0  0  0
    3.3250  -40.4040  -35.8510 C   0  0  0  0  0  0  0  0  0  0  0  0
    3.0150  -41.1640  -34.5800 C   0  0  0  0  0  0  0  0  0  0  0  0
    2.0650  -42.3240  -34.8260 C   0  0  0  0  0  0  0  0  0  0  0  0
    1.3830  -42.3730  -35.8500 O   0  0  0  0  0  0  0  0  0  0  0  0
    2.0180  -43.2640  -33.8890 N   0  0  0  0  0  0  0  0  0  0  0  0
    6.0180  -38.5530  -37.1110 N   0  0  0  0  0  0  0  0  0  0  0  0
    6.6260  -38.2140  -38.3930 C   0  0  2  0  0  0  0  0  0  0  0  0
    8.0100  -38.8250  -38.5610 C   0  0  0  0  0  0  0  0  0  0  0  0
    8.4080  -39.1660  -39.6750 O   0  0  0  0  0  0  0  0  0  0  0  0
    6.6970  -36.6950  -38.5650 C   0  0  0  0  0  0  0  0  0  0  0  0
    5.4620  -36.1280  -39.2450 C   0  0  0  0  0  0  0  0  0  0  0  0
    4.8410  -36.8510  -40.0530 O   0  0  0  0  0  0  0  0  0  0  0  0
    5.1160  -34.9580  -38.9770 O   0  0  0  0  0  0  0  0  0  0  0  0
  2  1  1  6
  3  2  1  0
  4  3  2  0
  5  2  1  0
  6  5  1  0
  7  6  1  0
  8  7  1  0
  9  8  1  0
 10  3  1  0
 11 10  1  1
 12 11  1  0
 13 12  2  0
 14 11  1  0
 15 14  1  0
 14 16  1  6
 17 15  1  0
 18 12  1  0
 19 18  1  0
 20 19  1  0
 21 20  2  0
 19 22  1  1
 23 22  1  0
 24 23  1  0
 25 23  1  0
 26 20  1  0
 27 26  1  0
 28 27  1  0
 29 28  2  0
 27 30  1  6
 31 30  1  0
 32 31  1  0
 33 31  2  0
 34 32  2  0
 35 34  1  0
 35 33  1  0
 36 28  1  0
 37 36  1  0
 38 37  1  0
 39 38  2  0
 37 40  1  6
 41 38  1  0
 42 41  1  0
 43 42  1  0
 44 43  2  0
 42 45  1  1
 46 45  1  0
 47 46  1  0
 48 46  1  0
 49 43  1  0
 50 49  1  0
 51 50  1  0
 52 51  2  0
 50 53  1  1
 54 53  1  0
 55 54  1  0
 56 54  1  0
 57 51  1  0
 58 57  1  0
 59 58  1  0
 60 59  2  0
 58 61  1  6
 62 61  1  0
 63 62  1  0
 64 63  2  0
 65 63  1  0
 66 59  1  0
 67 66  1  0
 68 67  1  0
 69 68  2  0
 67 70  1  1
 71 70  1  0
 72 71  2  0
 73 71  1  0
M  END
$$$$
7TE7
     RDKit          3D

 34 37  0  0  0  0  0  0  0  0999 V2000
  -33.5710    2.8560   25.5930 C   0  0  0  0  0  0  0  0  0  0  0  0
  -33.2730    3.9520   23.1060 C   0  0  0  0  0  0  0  0  0  0  0  0
  -32.0970    4.0110   20.8600 C   0  0  0  0  0  0  0  0  0  0  0  0
  -31.4060    3.6370   18.6490 C   0  0  0  0  0  0  0  0  0  0  0  0
  -34.4670    3.8150   25.1430 C   0  0  0  0  0  0  0  0  0  0  0  0
  -33.9570   -0.5870   31.1180 C   0  0  0  0  0  0  0  0  0  0  0  0
  -32.7750   -0.5490   30.3890 C   0  0  0  0  0  0  0  0  0  0  0  0
  -31.4440   -0.0270   28.2860 C   0  0  2  0  0  0  0  0  0  0  0  0
  -29.2300   -1.1300   28.0200 C   0  0  0  0  0  0  0  0  0  0  0  0
  -27.2440    0.3390   27.2890 C   0  0  0  0  0  0  0  0  0  0  0  0
  -37.5050   -0.1360   30.4760 C   0  0  0  0  0  0  0  0  0  0  0  0
  -35.1500   -0.1570   30.5360 C   0  0  0  0  0  0  0  0  0  0  0  0
  -35.1580    0.3350   29.2280 C   0  0  0  0  0  0  0  0  0  0  0  0
  -33.9790    0.3630   28.5030 C   0  0  0  0  0  0  0  0  0  0  0  0
  -34.5640    0.0770   26.0370 C   0  0  0  0  0  0  0  0  0  0  0  0
  -34.1960   -1.3890   26.2310 C   0  0  0  0  0  0  0  0  0  0  0  0
  -33.8230    2.3320   27.0250 C   0  0  0  0  0  0  0  0  0  0  0  0
  -32.5210    2.4450   24.8170 C   0  0  0  0  0  0  0  0  0  0  0  0
  -32.3570    2.9870   23.5370 C   0  0  0  0  0  0  0  0  0  0  0  0
  -33.1980    4.6240   21.7320 C   0  0  0  0  0  0  0  0  0  0  0  0
  -29.9850    3.5030   19.1870 C   0  0  0  0  0  0  0  0  0  0  0  0
  -34.2980    4.3490   23.8920 C   0  0  0  0  0  0  0  0  0  0  0  0
  -32.7730   -0.0590   29.0810 C   0  0  0  0  0  0  0  0  0  0  0  0
  -30.4790   -1.0350   28.8670 C   0  0  0  0  0  0  0  0  0  0  0  0
  -28.6260    0.2580   27.7050 C   0  0  0  0  0  0  0  0  0  0  0  0
  -26.6720    1.5870   26.9940 C   0  0  0  0  0  0  0  0  0  0  0  0
  -27.4480    2.7580   27.1310 C   0  0  0  0  0  0  0  0  0  0  0  0
  -28.7920    2.6870   27.5350 C   0  0  0  0  0  0  0  0  0  0  0  0
  -29.3770    1.4090   27.8350 C   0  0  0  0  0  0  0  0  0  0  0  0
  -30.8570    1.3780   28.2990 C   0  0  0  0  0  0  0  0  0  0  0  0
  -34.0920    0.8990   27.1510 N   0  0  0  0  0  0  0  0  0  0  0  0
  -32.2250    4.4860   19.5000 N   0  0  0  0  0  0  0  0  0  0  0  0
  -36.3440   -0.1960   31.2610 O   0  0  0  0  0  0  0  0  0  0  0  0
  -25.3210    1.6680   26.5690 O   0  0  0  0  0  0  0  0  0  0  0  0
  5  1  1  0
  7  6  1  0
 12  6  1  0
 13 12  1  0
 14 13  1  0
 16 15  1  0
 17  1  1  0
 18  1  1  0
 19  2  1  0
 19 18  1  0
 20  2  1  0
 20  3  1  0
 21  4  1  0
 22  5  1  0
 22  2  1  0
 23 14  1  0
 23  7  1  0
  8 23  1  1
 24  9  1  0
 24  8  1  0
 25  9  1  0
 25 10  1  0
 26 10  1  0
 27 26  1  0
 28 27  1  0
 29 28  1  0
 29 25  1  0
 30 29  1  0
 30  8  1  0
 31 17  1  0
 31 15  1  0
 31 14  1  0
 32  4  1  0
 32  3  1  0
 33 12  1  0
 33 11  1  0
 34 26  1  0
M  END
$$$$
8W03
     RDKit          3D

 40 43  0  0  0  0  0  0  0  0999 V2000
  -23.1150  -38.1130   -0.8480 C   0  0  0  0  0  0  0  0  0  0  0  0
  -23.7840  -39.1540   -0.2840 C   0  0  0  0  0  0  0  0  0  0  0  0
  -24.7350  -39.7390   -1.0360 C   0  0  0  0  0  0  0  0  0  0  0  0
  -24.9910  -39.2900   -2.2750 C   0  0  0  0  0  0  0  0  0  0  0  0
  -24.3180  -38.2500   -2.8450 C   0  0  0  0  0  0  0  0  0  0  0  0
  -23.3770  -37.6760   -2.0910 C   0  0  0  0  0  0  0  0  0  0  0  0
  -23.5110  -39.6000    0.9900 O   0  0  0  0  0  0  0  0  0  0  0  0
  -24.6110  -37.8440   -4.0910 C   0  0  0  0  0  0  0  0  0  0  0  0
  -23.9150  -37.7080   -5.2370 C   0  0  2  0  0  0  0  0  0  0  0  0
  -24.9700  -37.2530   -6.2420 C   0  0  2  0  0  0  0  0  0  0  0  0
  -22.6420  -37.9600   -5.6230 C   0  0  2  0  0  0  0  0  0  0  0  0
  -26.0390  -37.4380   -4.4260 C   0  0  1  0  0  0  0  0  0  0  0  0
  -21.9410  -37.1750   -6.5010 C   0  0  0  0  0  0  0  0  0  0  0  0
  -20.6790  -37.5310   -6.8990 C   0  0  0  0  0  0  0  0  0  0  0  0
  -20.0930  -38.6900   -6.4410 C   0  0  2  0  0  0  0  0  0  0  0  0
  -20.7740  -39.4430   -5.5580 C   0  0  0  0  0  0  0  0  0  0  0  0
  -22.0210  -39.0960   -5.1670 C   0  0  0  0  0  0  0  0  0  0  0  0
  -18.8300  -39.0590   -6.8000 O   0  0  0  0  0  0  0  0  0  0  0  0
  -26.0250  -35.9190   -4.6010 C   0  0  1  0  0  0  0  0  0  0  0  0
  -25.3050  -35.7840   -5.9680 C   0  0  2  0  0  0  0  0  0  0  0  0
  -27.7570  -35.2760   -4.3990 S   0  0  2  0  0  0  0  0  0  0  0  0
  -26.1730  -37.8440   -5.7750 O   0  0  0  0  0  0  0  0  0  0  0  0
  -28.5080  -36.1510   -3.1570 N   0  0  0  0  0  0  0  0  0  0  0  0
  -28.1710  -35.5840   -5.7750 O   0  0  0  0  0  0  0  0  0  0  0  0
  -27.2940  -33.9190   -4.0580 O   0  0  0  0  0  0  0  0  0  0  0  0
  -22.3280  -37.6120   -0.2570 H   0  0  0  0  0  0  0  0  0  0  0  0
  -25.3040  -40.5910   -0.6260 H   0  0  0  0  0  0  0  0  0  0  0  0
  -25.7910  -39.8240   -2.8110 H   0  0  0  0  0  0  0  0  0  0  0  0
  -22.7770  -36.8270   -2.4500 H   0  0  0  0  0  0  0  0  0  0  0  0
  -22.5790  -39.8760    1.0370 H   0  0  0  0  0  0  0  0  0  0  0  0
  -24.8160  -37.5800   -7.2910 H   0  0  0  0  0  0  0  0  0  0  0  0
  -26.8380  -37.8650   -3.7920 H   0  0  0  0  0  0  0  0  0  0  0  0
  -22.3590  -36.2420   -6.9150 H   0  0  0  0  0  0  0  0  0  0  0  0
  -20.1190  -36.8830   -7.5960 H   0  0  0  0  0  0  0  0  0  0  0  0
  -20.3060  -40.3550   -5.1520 H   0  0  0  0  0  0  0  0  0  0  0  0
  -22.5180  -39.7760   -4.4560 H   0  0  0  0  0  0  0  0  0  0  0  0
  -18.2980  -38.2360   -6.8770 H   0  0  0  0  0  0  0  0  0  0  0  0
  -25.3640  -35.3560   -3.9000 H   0  0  0  0  0  0  0  0  0  0  0  0
  -25.9580  -35.3740   -6.7710 H   0  0  0  0  0  0  0  0  0  0  0  0
  -24.3770  -35.1730   -5.9180 H   0  0  0  0  0  0  0  0  0  0  0  0
  2  1  1  0
  3  2  1  0
  4  3  1  0
  5  4  1  0
  6  5  1  0
  6  1  1  0
  7  2  1  0
  8  5  1  0
  9  8  1  6
 10  9  1  0
 11  9  1  0
 12  8  1  0
 11 13  1  6
 14 13  1  0
 15 14  1  0
 16 15  1  0
 17 11  1  0
 17 16  1  0
 15 18  1  1
 19 12  1  0
 20 10  1  0
 20 19  1  0
 21 19  1  0
 22 10  1  0
 22 12  1  0
 21 23  1  1
 24 21  1  0
 25 21  1  0
 26  1  1  0
 27  3  1  0
 28  4  1  0
 29  6  1  0
 30  7  1  0
 10 31  1  6
 12 32  1  1
 33 13  1  0
 34 14  1  0
 35 16  1  0
 36 17  1  0
 37 18  1  0
 19 38  1  1
 20 39  1  6
 40 20  1  0
M  END
$$$$
1YIN
     RDKit          3D

 35 39  0  0  0  0  0  0  0  0999 V2000
   31.6210   -0.6210   28.6400 C   0  0  2  0  0  0  0  0  0  0  0  0
   31.8330   -2.0240   28.0610 C   0  0  1  0  0  0  0  0  0  0  0  0
   30.6400   -2.7870   28.3210 O   0  0  0  0  0  0  0  0  0  0  0  0
   29.4410   -2.2870   27.9800 C   0  0  1  0  0  0  0  0  0  0  0  0
   28.4330   -3.2210   27.7310 C   0  0  0  0  0  0  0  0  0  0  0  0
   27.1510   -2.8180   27.3690 C   0  0  0  0  0  0  0  0  0  0  0  0
   26.8740   -1.4530   27.2950 C   0  0  2  0  0  0  0  0  0  0  0  0
   25.6620   -0.9880   26.9460 O   0  0  0  0  0  0  0  0  0  0  0  0
   27.8990   -0.5180   27.5150 C   0  0  0  0  0  0  0  0  0  0  0  0
   27.5490    0.7480   27.2810 F   0  0  0  0  0  0  0  0  0  0  0  0
   29.1880   -0.8950   27.9400 C   0  0  2  0  0  0  0  0  0  0  0  0
   30.3160    0.0960   28.1990 C   0  0  1  0  0  0  0  0  0  0  0  0
   30.0890    1.2720   29.1370 C   0  0  0  0  0  0  0  0  0  0  0  0
   32.8780    0.1900   28.4110 C   0  0  0  0  0  0  0  0  0  0  0  0
   33.0590    1.0830   27.3400 C   0  0  0  0  0  0  0  0  0  0  0  0
   34.2620    1.7710   27.2220 C   0  0  0  0  0  0  0  0  0  0  0  0
   35.2990    1.6110   28.1500 C   0  0  0  0  0  0  0  0  0  0  0  0
   36.4490    2.2950   28.0270 O   0  0  0  0  0  0  0  0  0  0  0  0
   35.1090    0.7340   29.2160 C   0  0  0  0  0  0  0  0  0  0  0  0
   33.9160    0.0370   29.3330 C   0  0  0  0  0  0  0  0  0  0  0  0
   32.1580   -2.1330   26.5970 C   0  0  0  0  0  0  0  0  0  0  0  0
   33.1300   -3.0690   26.2250 C   0  0  0  0  0  0  0  0  0  0  0  0
   33.4680   -3.2650   24.8800 C   0  0  0  0  0  0  0  0  0  0  0  0
   32.9170   -2.4700   23.8620 C   0  0  0  0  0  0  0  0  0  0  0  0
   31.9340   -1.5420   24.2310 C   0  0  0  0  0  0  0  0  0  0  0  0
   31.5560   -1.4070   25.5560 C   0  0  0  0  0  0  0  0  0  0  0  0
   33.2650   -2.6090   22.5640 O   0  0  0  0  0  0  0  0  0  0  0  0
   33.8820   -3.8390   22.1460 C   0  0  0  0  0  0  0  0  0  0  0  0
   34.1240   -3.9240   20.6370 C   0  0  0  0  0  0  0  0  0  0  0  0
   32.9400   -4.2260   19.8050 N   0  0  0  0  0  0  0  0  0  0  0  0
   33.4730   -4.2610   18.4430 C   0  0  0  0  0  0  0  0  0  0  0  0
   32.3580   -4.7450   17.5420 C   0  0  0  0  0  0  0  0  0  0  0  0
   31.4390   -3.5320   17.3630 C   0  0  0  0  0  0  0  0  0  0  0  0
   30.8770   -3.1910   18.7650 C   0  0  0  0  0  0  0  0  0  0  0  0
   31.9440   -3.1510   19.8850 C   0  0  0  0  0  0  0  0  0  0  0  0
  2  1  1  0
  3  2  1  0
  4  3  1  0
  4  5  1  1
  6  5  1  0
  7  6  1  0
  7  8  1  6
  9  7  1  0
 10  9  1  0
 11  9  1  6
 11  4  1  0
 12 11  1  0
 12  1  1  0
 12 13  1  1
  1 14  1  6
 15 14  1  0
 16 15  1  0
 17 16  1  0
 18 17  1  0
 19 17  1  0
 20 19  1  0
 20 14  1  0
  2 21  1  6
 22 21  1  0
 23 22  1  0
 24 23  1  0
 25 24  1  0
 26 25  1  0
 26 21  1  0
 27 24  1  0
 28 27  1  0
 29 28  1  0
 30 29  1  0
 31 30  1  0
 32 31  1  0
 33 32  1  0
 34 33  1  0
 35 34  1  0
 35 30  1  0
M  END
$$$$
7OPW
     RDKit          3D

 58 58  0  0  0  0  0  0  0  0999 V2000
   12.4670    7.6170   14.6150 N   0  0  0  0  0  0  0  0  0  0  0  0
   13.5340    8.6040   14.4860 C   0  0  2  0  0  0  0  0  0  0  0  0
   12.9300    9.8480   13.8360 C   0  0  0  0  0  0  0  0  0  0  0  0
   12.0320    9.7290   13.0000 O   0  0  0  0  0  0  0  0  0  0  0  0
   14.6920    8.0410   13.6700 C   0  0  0  0  0  0  0  0  0  0  0  0
   13.9150    8.8430   15.3460 H   0  0  0  0  0  0  0  0  0  0  0  0
   13.3790   11.0370   14.2340 N   0  0  0  0  0  0  0  0  0  0  0  0
   12.8150   12.2660   13.6670 C   0  0  2  0  0  0  0  0  0  0  0  0
   13.4750   12.6170   12.3400 C   0  0  0  0  0  0  0  0  0  0  0  0
   14.5710   12.1620   12.0090 O   0  0  0  0  0  0  0  0  0  0  0  0
   13.1100   13.3200   14.7440 C   0  0  0  0  0  0  0  0  0  0  0  0
   14.3750   12.8470   15.3950 C   0  0  0  0  0  0  0  0  0  0  0  0
   14.4250   11.3220   15.2400 C   0  0  0  0  0  0  0  0  0  0  0  0
   11.8550   12.2010   13.5490 H   0  0  0  0  0  0  0  0  0  0  0  0
   13.2330   14.1890   14.3320 H   0  0  0  0  0  0  0  0  0  0  0  0
   12.3800   13.3550   15.3820 H   0  0  0  0  0  0  0  0  0  0  0  0
   15.1360   13.2570   14.9550 H   0  0  0  0  0  0  0  0  0  0  0  0
   14.3640   13.0920   16.3340 H   0  0  0  0  0  0  0  0  0  0  0  0
   15.2950   11.0370   14.9210 H   0  0  0  0  0  0  0  0  0  0  0  0
   14.2200   10.8840   16.0820 H   0  0  0  0  0  0  0  0  0  0  0  0
   12.7720   13.4370   11.5670 N   0  0  0  0  0  0  0  0  0  0  0  0
   13.1980   13.7260   10.2130 C   0  0  2  0  0  0  0  0  0  0  0  0
   14.2830   14.8080   10.1950 C   0  0  0  0  0  0  0  0  0  0  0  0
   14.2250   15.7660   10.9610 O   0  0  0  0  0  0  0  0  0  0  0  0
   12.0090   14.1480    9.3660 C   0  0  0  0  0  0  0  0  0  0  0  0
   12.0480   13.8340   11.8070 H   0  0  0  0  0  0  0  0  0  0  0  0
   13.5750   12.9220    9.8230 H   0  0  0  0  0  0  0  0  0  0  0  0
   12.3120   14.3260    8.4620 H   0  0  0  0  0  0  0  0  0  0  0  0
   11.3550   13.4320    9.3610 H   0  0  0  0  0  0  0  0  0  0  0  0
   11.6180   14.9500    9.7480 H   0  0  0  0  0  0  0  0  0  0  0  0
   15.2640   14.6080    9.3240 N   0  0  0  0  0  0  0  0  0  0  0  0
   16.3190   15.5740    9.0560 C   0  0  1  0  0  0  0  0  0  0  0  0
   17.6300   15.1880    9.7840 C   0  0  1  0  0  0  0  0  0  0  0  0
   17.4520   15.3550   11.2890 C   0  0  0  0  0  0  0  0  0  0  0  0
   17.8690   13.8190    9.4470 O   0  0  0  0  0  0  0  0  0  0  0  0
   19.3700   13.2590    9.8420 P   0  0  0  0  0  0  0  0  0  0  0  0
   19.5470   11.9150    9.0150 O   0  0  0  0  0  0  0  0  0  0  0  0
   19.3840   12.9410   11.2980 O   0  0  0  0  0  0  0  0  0  0  0  0
   20.4610   14.3680    9.5700 O   0  0  0  0  0  0  0  0  0  0  0  0
   16.5440   15.6090    7.5630 C   0  0  0  0  0  0  0  0  0  0  0  0
   16.2460   14.6270    6.8650 O   0  0  0  0  0  0  0  0  0  0  0  0
   17.0980   16.7090    7.0550 N   0  0  0  0  0  0  0  0  0  0  0  0
   17.3610   16.8080    5.6210 C   0  0  2  0  0  0  0  0  0  0  0  0
   18.7580   17.2640    5.3120 C   0  0  0  0  0  0  0  0  0  0  0  0
   19.4630   17.7540    6.1910 O   0  0  0  0  0  0  0  0  0  0  0  0
   16.3590   17.7670    4.9330 C   0  0  0  0  0  0  0  0  0  0  0  0
   14.9590   17.2380    5.0490 C   0  0  0  0  0  0  0  0  0  0  0  0
   16.4770   19.1850    5.5230 C   0  0  0  0  0  0  0  0  0  0  0  0
   19.1790   17.1600    4.1630 O   0  0  0  0  0  0  0  0  0  0  0  0
   17.3260   17.4000    7.5130 H   0  0  0  0  0  0  0  0  0  0  0  0
   17.2600   15.9110    5.2660 H   0  0  0  0  0  0  0  0  0  0  0  0
   16.5710   17.8250    3.9880 H   0  0  0  0  0  0  0  0  0  0  0  0
   14.3590   17.8210    4.5580 H   0  0  0  0  0  0  0  0  0  0  0  0
   14.9280   16.3420    4.6770 H   0  0  0  0  0  0  0  0  0  0  0  0
   14.7060   17.2160    5.9850 H   0  0  0  0  0  0  0  0  0  0  0  0
   15.7650   19.7360    5.1630 H   0  0  0  0  0  0  0  0  0  0  0  0
   16.3990   19.1320    6.4880 H   0  0  0  0  0  0  0  0  0  0  0  0
   17.3390   19.5570    5.2800 H   0  0  0  0  0  0  0  0  0  0  0  0
  2  1  1  0
  3  2  1  0
  4  3  2  0
  5  2  1  0
  2  6  1  1
  7  3  1  0
  8  7  1  0
  9  8  1  0
 10  9  2  0
 11  8  1  0
 12 11  1  0
 13 12  1  0
 13  7  1  0
  8 14  1  6
 15 11  1  0
 16 11  1  0
 17 12  1  0
 18 12  1  0
 19 13  1  0
 20 13  1  0
 21  9  1  0
 22 21  1  0
 23 22  1  0
 24 23  2  0
 25 22  1  0
 26 21  1  0
 22 27  1  6
 28 25  1  0
 29 25  1  0
 30 25  1  0
 31 23  1  0
 32 31  1  6
 33 32  1  0
 33 34  1  1
 35 33  1  0
 36 35  1  0
 37 36  1  0
 38 36  1  0
 39 36  1  0
 40 32  1  0
 41 40  1  0
 42 40  1  0
 43 42  1  0
 44 43  1  0
 45 44  2  0
 46 43  1  0
 47 46  1  0
 48 46  1  0
 49 44  1  0
 50 42  1  0
 43 51  1  6
 52 46  1  0
 53 47  1  0
 54 47  1  0
 55 47  1  0
 56 48  1  0
 57 48  1  0
 58 48  1  0
M  END
$$$$
4O6F
     RDKit          3D

 26 28  0  0  0  0  0  0  0  0999 V2000
   59.3830  169.1470   -5.6150 N   0  0  0  0  0  0  0  0  0  0  0  0
   60.5960  169.4070   -6.3790 C   0  0  1  0  0  0  0  0  0  0  0  0
   60.5800  170.8180   -6.9530 C   0  0  0  0  0  0  0  0  0  0  0  0
   59.6000  171.0000   -8.1060 C   0  0  0  0  0  0  0  0  0  0  0  0
   60.2790  170.3220   -9.6430 S   0  0  0  0  0  0  0  0  0  0  0  0
   61.8420  169.2030   -5.5300 C   0  0  0  0  0  0  0  0  0  0  0  0
   61.7710  168.7150   -4.4030 O   0  0  0  0  0  0  0  0  0  0  0  0
   62.9520  169.5090   -5.9650 O   0  0  0  0  0  0  0  0  0  0  0  0
   58.7890  169.3690  -10.0430 C   0  0  0  0  0  0  0  0  0  0  0  0
   58.6700  168.0440   -9.2990 C   0  0  1  0  0  0  0  0  0  0  0  0
   58.1130  168.2400   -8.0080 O   0  0  0  0  0  0  0  0  0  0  0  0
   57.7530  167.0790  -10.0350 C   0  0  1  0  0  0  0  0  0  0  0  0
   58.4700  166.1830  -10.8550 O   0  0  0  0  0  0  0  0  0  0  0  0
   56.9790  166.3820   -8.9280 C   0  0  1  0  0  0  0  0  0  0  0  0
   57.5570  165.1500   -8.5540 O   0  0  0  0  0  0  0  0  0  0  0  0
   57.0300  167.3590   -7.7770 C   0  0  2  0  0  0  0  0  0  0  0  0
   55.7710  168.1180   -7.7260 N   0  0  0  0  0  0  0  0  0  0  0  0
   55.5990  169.4030   -8.1600 C   0  0  0  0  0  0  0  0  0  0  0  0
   54.3140  169.7510   -7.9540 N   0  0  0  0  0  0  0  0  0  0  0  0
   53.6580  168.7100   -7.4080 C   0  0  0  0  0  0  0  0  0  0  0  0
   52.3400  168.5500   -7.0130 C   0  0  0  0  0  0  0  0  0  0  0  0
   51.4810  169.5530   -7.1630 N   0  0  0  0  0  0  0  0  0  0  0  0
   51.9320  167.3460   -6.4730 N   0  0  0  0  0  0  0  0  0  0  0  0
   52.8410  166.3170   -6.3310 C   0  0  0  0  0  0  0  0  0  0  0  0
   54.1520  166.4920   -6.7260 N   0  0  0  0  0  0  0  0  0  0  0  0
   54.5600  167.6710   -7.2550 C   0  0  0  0  0  0  0  0  0  0  0  0
  2  1  1  1
  3  2  1  0
  4  3  1  0
  5  4  1  0
  6  2  1  0
  7  6  1  0
  8  6  1  0
  9  5  1  0
 10  9  1  6
 11 10  1  0
 12 10  1  0
 12 13  1  1
 14 12  1  0
 14 15  1  1
 16 14  1  0
 16 11  1  0
 16 17  1  6
 18 17  1  0
 19 18  1  0
 20 19  1  0
 21 20  1  0
 22 21  1  0
 23 21  1  0
 24 23  1  0
 25 24  1  0
 26 25  1  0
 26 20  1  0
 26 17  1  0
M  END
$$$$
8EV1
     RDKit          3D

 79 79  0  0  0  0  0  0  0  0999 V2000
  -10.3530   26.8730   21.1890 N   0  0  0  0  0  0  0  0  0  0  0  0
  -11.3670   27.4140   22.1370 C   0  0  2  0  0  0  0  0  0  0  0  0
  -11.0820   26.9470   23.5690 C   0  0  0  0  0  0  0  0  0  0  0  0
  -10.6850   27.7460   24.4160 O   0  0  0  0  0  0  0  0  0  0  0  0
  -12.7830   27.0250   21.7020 C   0  0  0  0  0  0  0  0  0  0  0  0
  -13.2100   27.5370   20.3280 C   0  0  0  0  0  0  0  0  0  0  0  0
  -13.3340   29.0600   20.2660 C   0  0  0  0  0  0  0  0  0  0  0  0
  -12.1220   29.7150   19.6080 C   0  0  0  0  0  0  0  0  0  0  0  0
  -12.1380   31.2080   19.6390 N   0  0  0  0  0  0  0  0  0  0  0  0
  -11.2730   25.6490   23.8380 N   0  0  0  0  0  0  0  0  0  0  0  0
  -10.8840   25.0700   25.1180 C   0  0  2  0  0  0  0  0  0  0  0  0
   -9.4000   25.3560   25.3630 C   0  0  0  0  0  0  0  0  0  0  0  0
   -8.9990   25.6680   26.4830 O   0  0  0  0  0  0  0  0  0  0  0  0
  -11.0670   23.5530   25.1850 C   0  0  2  0  0  0  0  0  0  0  0  0
  -12.5330   23.1650   24.9460 C   0  0  0  0  0  0  0  0  0  0  0  0
  -10.5930   23.0440   26.5470 C   0  0  0  0  0  0  0  0  0  0  0  0
  -12.7500   21.6770   24.7640 C   0  0  0  0  0  0  0  0  0  0  0  0
   -8.5970   25.2560   24.2950 N   0  0  0  0  0  0  0  0  0  0  0  0
   -7.1820   25.5260   24.3780 C   0  0  2  0  0  0  0  0  0  0  0  0
   -6.9620   26.9510   24.8600 C   0  0  0  0  0  0  0  0  0  0  0  0
   -6.1420   27.1820   25.7500 O   0  0  0  0  0  0  0  0  0  0  0  0
   -6.5150   25.3010   23.0280 C   0  0  0  0  0  0  0  0  0  0  0  0
   -4.9890   25.3290   23.0180 C   0  0  0  0  0  0  0  0  0  0  0  0
   -4.4320   24.4590   24.1330 C   0  0  0  0  0  0  0  0  0  0  0  0
   -4.4420   24.9150   21.6430 C   0  0  0  0  0  0  0  0  0  0  0  0
   -7.7280   27.8930   24.2920 N   0  0  0  0  0  0  0  0  0  0  0  0
   -7.6900   29.2980   24.6950 C   0  0  2  0  0  0  0  0  0  0  0  0
   -8.0460   29.4950   26.1640 C   0  0  0  0  0  0  0  0  0  0  0  0
   -7.4150   30.2950   26.8520 O   0  0  0  0  0  0  0  0  0  0  0  0
   -8.6440   30.1400   23.8550 C   0  0  0  0  0  0  0  0  0  0  0  0
   -8.2510   30.2560   22.4180 C   0  0  0  0  0  0  0  0  0  0  0  0
   -7.2100   31.0510   21.9930 N   0  0  0  0  0  0  0  0  0  0  0  0
   -8.7810   29.7010   21.3040 C   0  0  0  0  0  0  0  0  0  0  0  0
   -7.1100   30.9710   20.6780 C   0  0  0  0  0  0  0  0  0  0  0  0
   -8.0500   30.1540   20.2360 N   0  0  0  0  0  0  0  0  0  0  0  0
   -9.0650   28.7750   26.6410 N   0  0  0  0  0  0  0  0  0  0  0  0
   -9.4600   28.8710   28.0400 C   0  0  2  0  0  0  0  0  0  0  0  0
   -8.2900   28.4360   28.9080 C   0  0  0  0  0  0  0  0  0  0  0  0
   -7.8560   29.1880   29.7900 O   0  0  0  0  0  0  0  0  0  0  0  0
  -10.6920   28.0120   28.3500 C   0  0  0  0  0  0  0  0  0  0  0  0
  -11.2560   28.1920   29.7660 C   0  0  0  0  0  0  0  0  0  0  0  0
  -12.0520   26.9720   30.2470 C   0  0  0  0  0  0  0  0  0  0  0  0
  -13.4670   26.9930   29.8510 N   0  0  0  0  0  0  0  0  0  0  0  0
  -14.2920   25.9390   29.8830 C   0  0  0  0  0  0  0  0  0  0  0  0
  -13.8610   24.7420   30.2800 N   0  0  0  0  0  0  0  0  0  0  0  0
  -15.5630   26.0770   29.5080 N   0  0  0  0  0  0  0  0  0  0  0  0
   -7.7740   27.2280   28.6320 N   0  0  0  0  0  0  0  0  0  0  0  0
   -6.7220   26.5980   29.4320 C   0  0  2  0  0  0  0  0  0  0  0  0
   -5.4050   27.3580   29.3920 C   0  0  0  0  0  0  0  0  0  0  0  0
   -4.6540   27.3310   30.3550 O   0  0  0  0  0  0  0  0  0  0  0  0
   -6.5050   25.1510   28.9760 C   0  0  0  0  0  0  0  0  0  0  0  0
   -7.6930   24.2210   29.2500 C   0  0  0  0  0  0  0  0  0  0  0  0
   -7.4920   22.8920   28.5500 C   0  0  0  0  0  0  0  0  0  0  0  0
   -7.8840   24.0010   30.7490 C   0  0  0  0  0  0  0  0  0  0  0  0
   -5.1260   28.0250   28.2650 N   0  0  0  0  0  0  0  0  0  0  0  0
   -3.9330   28.8580   28.1370 C   0  0  2  0  0  0  0  0  0  0  0  0
   -3.9960   30.1820   28.9020 C   0  0  0  0  0  0  0  0  0  0  0  0
   -2.9750   30.8150   29.1250 O   0  0  0  0  0  0  0  0  0  0  0  0
   -3.6190   29.1410   26.6650 C   0  0  0  0  0  0  0  0  0  0  0  0
   -2.7320   28.1230   25.9630 C   0  0  0  0  0  0  0  0  0  0  0  0
   -2.7110   28.3930   24.4670 C   0  0  0  0  0  0  0  0  0  0  0  0
   -1.3310   28.1450   26.5510 C   0  0  0  0  0  0  0  0  0  0  0  0
   -5.2020   30.5980   29.2800 N   0  0  0  0  0  0  0  0  0  0  0  0
   -5.4200   31.8510   29.9970 C   0  0  2  0  0  0  0  0  0  0  0  0
   -5.5770   31.6530   31.5080 C   0  0  0  0  0  0  0  0  0  0  0  0
   -5.2900   32.5700   32.2820 O   0  0  0  0  0  0  0  0  0  0  0  0
   -6.6180   32.5850   29.3940 C   0  0  0  0  0  0  0  0  0  0  0  0
   -6.3530   33.0700   27.9670 C   0  0  0  0  0  0  0  0  0  0  0  0
   -7.6140   33.5020   27.2340 C   0  0  0  0  0  0  0  0  0  0  0  0
   -8.7100   33.0150   27.5070 O   0  0  0  0  0  0  0  0  0  0  0  0
   -7.4590   34.4270   26.3000 N   0  0  0  0  0  0  0  0  0  0  0  0
   -6.0000   30.4470   31.9180 N   0  0  0  0  0  0  0  0  0  0  0  0
   -6.0580   30.0590   33.3310 C   0  0  2  0  0  0  0  0  0  0  0  0
   -4.6600   29.9630   33.9460 C   0  0  0  0  0  0  0  0  0  0  0  0
   -4.1820   30.9040   34.5870 O   0  0  0  0  0  0  0  0  0  0  0  0
   -6.7840   28.7180   33.4990 C   0  0  0  0  0  0  0  0  0  0  0  0
   -8.2800   28.8170   33.2310 C   0  0  0  0  0  0  0  0  0  0  0  0
   -8.7410   29.8660   32.7280 O   0  0  0  0  0  0  0  0  0  0  0  0
   -8.9970   27.8370   33.5290 O   0  0  0  0  0  0  0  0  0  0  0  0
  2  1  1  6
  3  2  1  0
  4  3  2  0
  5  2  1  0
  6  5  1  0
  7  6  1  0
  8  7  1  0
  9  8  1  0
 10  3  1  0
 11 10  1  6
 12 11  1  0
 13 12  2  0
 14 11  1  0
 15 14  1  0
 14 16  1  1
 17 15  1  0
 18 12  1  0
 19 18  1  0
 20 19  1  0
 21 20  2  0
 19 22  1  6
 23 22  1  0
 24 23  1  0
 25 23  1  0
 26 20  1  0
 27 26  1  0
 28 27  1  0
 29 28  2  0
 27 30  1  6
 31 30  1  0
 32 31  1  0
 33 31  2  0
 34 32  2  0
 35 34  1  0
 35 33  1  0
 36 28  1  0
 37 36  1  0
 38 37  1  0
 39 38  2  0
 37 40  1  6
 41 40  1  0
 42 41  1  0
 43 42  1  0
 44 43  1  0
 45 44  1  0
 46 44  2  0
 47 38  1  0
 48 47  1  0
 49 48  1  0
 50 49  2  0
 48 51  1  6
 52 51  1  0
 53 52  1  0
 54 52  1  0
 55 49  1  0
 56 55  1  0
 57 56  1  0
 58 57  2  0
 56 59  1  6
 60 59  1  0
 61 60  1  0
 62 60  1  0
 63 57  1  0
 64 63  1  0
 65 64  1  0
 66 65  2  0
 64 67  1  6
 68 67  1  0
 69 68  1  0
 70 69  2  0
 71 69  1  0
 72 65  1  0
 73 72  1  0
 74 73  1  0
 75 74  2  0
 73 76  1  6
 77 76  1  0
 78 77  2  0
 79 77  1  0
M  END
$$$$
5KRH
     RDKit          3D

 27 31  0  0  0  0  0  0  0  0999 V2000
  -22.1120  -27.7380   -7.8430 O   0  0  0  0  0  0  0  0  0  0  0  0
  -20.9530  -27.4720   -7.6120 C   0  0  0  0  0  0  0  0  0  0  0  0
  -20.5150  -26.7310   -6.5700 C   0  0  1  0  0  0  0  0  0  0  0  0
  -20.5600  -25.2760   -6.9980 C   0  0  0  0  0  0  0  0  0  0  0  0
  -21.2790  -26.8620   -5.3000 C   0  0  0  0  0  0  0  0  0  0  0  0
  -20.5650  -26.0630   -4.2180 C   0  0  0  0  0  0  0  0  0  0  0  0
  -19.0980  -26.4820   -4.1090 C   0  0  2  0  0  0  0  0  0  0  0  0
  -18.3860  -25.8670   -3.0530 C   0  0  1  0  0  0  0  0  0  0  0  0
  -19.0230  -25.5240   -1.8870 C   0  0  0  0  0  0  0  0  0  0  0  0
  -18.3620  -24.9530   -0.8370 C   0  0  0  0  0  0  0  0  0  0  0  0
  -17.0200  -24.7440   -0.9310 C   0  0  0  0  0  0  0  0  0  0  0  0
  -16.3710  -24.1970    0.0770 O   0  0  0  0  0  0  0  0  0  0  0  0
  -16.3520  -25.1060   -2.0730 C   0  0  0  0  0  0  0  0  0  0  0  0
  -17.0220  -25.6730   -3.1270 C   0  0  0  0  0  0  0  0  0  0  0  0
  -16.2960  -26.0090   -4.2750 C   0  0  0  0  0  0  0  0  0  0  0  0
  -17.0510  -26.8390   -5.3670 C   0  0  0  0  0  0  0  0  0  0  0  0
  -18.4210  -26.3840   -5.4870 C   0  0  1  0  0  0  0  0  0  0  0  0
  -19.1810  -27.2970   -6.3860 C   0  0  2  0  0  0  0  0  0  0  0  0
  -18.7710  -27.3350   -7.8220 C   0  0  0  0  0  0  0  0  0  0  0  0
  -19.9430  -27.8190   -8.3720 C   0  0  0  0  0  0  0  0  0  0  0  0
  -20.1270  -28.5650   -9.4550 C   0  0  0  0  0  0  0  0  0  0  0  0
  -19.1120  -28.9430  -10.3030 C   0  0  2  0  0  0  0  0  0  0  0  0
  -17.9340  -28.2370  -10.3970 C   0  0  0  0  0  0  0  0  0  0  0  0
  -16.9460  -28.6050  -11.2860 C   0  0  0  0  0  0  0  0  0  0  0  0
  -17.1500  -29.6850  -12.1220 C   0  0  0  0  0  0  0  0  0  0  0  0
  -18.3500  -30.3760  -12.0420 C   0  0  0  0  0  0  0  0  0  0  0  0
  -19.3330  -30.0030  -11.1480 C   0  0  0  0  0  0  0  0  0  0  0  0
  2  1  1  0
  3  2  1  0
  3  4  1  6
  5  3  1  0
  6  5  1  0
  7  6  1  6
  8  7  1  0
  8  9  1  1
 10  9  1  0
 11 10  1  0
 12 11  1  0
 13 11  1  0
 14 13  1  0
 14  8  1  0
 15 14  1  0
 16 15  1  0
 17 16  1  1
 17  7  1  0
 18 17  1  0
 18  3  1  0
 18 19  1  6
 20 19  1  0
 20  2  1  0
 21 20  1  0
 22 21  1  6
 23 22  1  0
 24 23  1  0
 25 24  1  0
 26 25  1  0
 27 26  1  0
 27 22  1  0
M  END
$$$$
3CBM
     RDKit          3D

 61 60  0  0  0  0  0  0  0  0999 V2000
   10.3840  -11.8220   26.3410 N   0  0  0  0  0  0  0  0  0  0  0  0
   10.5180  -10.9640   27.5540 C   0  0  2  0  0  0  0  0  0  0  0  0
   11.5510   -9.8670   27.2980 C   0  0  0  0  0  0  0  0  0  0  0  0
   11.3910   -8.7340   27.7530 O   0  0  0  0  0  0  0  0  0  0  0  0
   10.9290  -11.8170   28.7900 C   0  0  2  0  0  0  0  0  0  0  0  0
   10.8760  -10.9720   30.0690 C   0  0  0  0  0  0  0  0  0  0  0  0
   12.3100  -12.4220   28.5740 C   0  0  0  0  0  0  0  0  0  0  0  0
   12.0520  -10.0290   30.2750 C   0  0  0  0  0  0  0  0  0  0  0  0
   12.5960  -10.2130   26.5520 N   0  0  0  0  0  0  0  0  0  0  0  0
   13.6590   -9.2730   26.2110 C   0  0  2  0  0  0  0  0  0  0  0  0
   13.1590   -8.3440   25.1070 C   0  0  0  0  0  0  0  0  0  0  0  0
   12.9990   -8.7670   23.9610 O   0  0  0  0  0  0  0  0  0  0  0  0
   14.8900  -10.0370   25.7180 C   0  0  0  0  0  0  0  0  0  0  0  0
   16.1180   -9.1710   25.4690 C   0  0  0  0  0  0  0  0  0  0  0  0
   17.1060   -9.2490   26.6280 C   0  0  0  0  0  0  0  0  0  0  0  0
   16.4880   -8.7860   27.9340 C   0  0  0  0  0  0  0  0  0  0  0  0
   17.4250   -8.9300   29.0780 N   0  0  0  0  0  0  0  0  0  0  0  0
   12.9140   -7.0830   25.4460 N   0  0  0  0  0  0  0  0  0  0  0  0
   12.4250   -6.1260   24.4610 C   0  0  2  0  0  0  0  0  0  0  0  0
   13.4760   -5.1690   23.9120 C   0  0  0  0  0  0  0  0  0  0  0  0
   13.3030   -3.9500   23.9330 O   0  0  0  0  0  0  0  0  0  0  0  0
   11.2430   -5.3510   25.0520 C   0  0  0  0  0  0  0  0  0  0  0  0
   10.1100   -6.2800   25.4600 C   0  0  0  0  0  0  0  0  0  0  0  0
    8.9170   -5.5660   26.0660 C   0  0  0  0  0  0  0  0  0  0  0  0
    7.8810   -6.5320   26.4290 N   0  0  0  0  0  0  0  0  0  0  0  0
    6.7370   -6.2270   27.0320 C   0  0  0  0  0  0  0  0  0  0  0  0
    6.4600   -4.9690   27.3480 N   0  0  0  0  0  0  0  0  0  0  0  0
    5.8670   -7.1850   27.3240 N   0  0  0  0  0  0  0  0  0  0  0  0
   14.5610   -5.7430   23.4080 N   0  0  0  0  0  0  0  0  0  0  0  0
   15.6430   -4.9690   22.8170 C   0  0  2  0  0  0  0  0  0  0  0  0
   16.2720   -5.8030   21.7100 C   0  0  0  0  0  0  0  0  0  0  0  0
   16.1540   -7.0280   21.7040 O   0  0  0  0  0  0  0  0  0  0  0  0
   16.6980   -4.6260   23.8700 C   0  0  0  0  0  0  0  0  0  0  0  0
   17.2480   -5.7980   24.4430 O   0  0  0  0  0  0  0  0  0  0  0  0
   16.9260   -5.1390   20.7660 N   0  0  0  0  0  0  0  0  0  0  0  0
   17.5800   -5.8440   19.6710 C   0  0  1  0  0  0  0  0  0  0  0  0
   18.0910   -4.8390   18.6410 C   0  0  0  0  0  0  0  0  0  0  0  0
   17.0060   -3.9550   18.0540 C   0  0  0  0  0  0  0  0  0  0  0  0
   17.6280   -2.7360   17.3900 C   0  0  0  0  0  0  0  0  0  0  0  0
   16.5780   -1.8160   16.8000 C   0  0  0  0  0  0  0  0  0  0  0  0
   17.1990   -0.6570   16.1600 N   0  0  0  0  0  0  0  0  0  0  0  0
   16.1440    0.2040   15.5680 C   0  0  0  0  0  0  0  0  0  0  0  0
   18.7470   -6.6350   20.2550 C   0  0  0  0  0  0  0  0  0  0  0  0
   19.3520   -6.2100   21.2390 O   0  0  0  0  0  0  0  0  0  0  0  0
   19.0590   -7.7780   19.6480 N   0  0  0  0  0  0  0  0  0  0  0  0
   20.1480   -8.6290   20.1190 C   0  0  2  0  0  0  0  0  0  0  0  0
   20.9300   -9.2480   18.9650 C   0  0  0  0  0  0  0  0  0  0  0  0
   20.4340   -9.3370   17.8410 O   0  0  0  0  0  0  0  0  0  0  0  0
   19.5940   -9.7620   20.9840 C   0  0  0  0  0  0  0  0  0  0  0  0
   18.6920   -9.3190   22.1180 C   0  0  0  0  0  0  0  0  0  0  0  0
   17.9880  -10.5200   22.7270 C   0  0  0  0  0  0  0  0  0  0  0  0
   17.1180  -11.2270   21.7020 C   0  0  0  0  0  0  0  0  0  0  0  0
   16.4560  -12.4260   22.2700 N   0  0  0  0  0  0  0  0  0  0  0  0
   22.1500   -9.6860   19.2610 N   0  0  0  0  0  0  0  0  0  0  0  0
   23.0150  -10.3260   18.2760 C   0  0  2  0  0  0  0  0  0  0  0  0
   24.0080  -11.2480   18.9820 C   0  0  0  0  0  0  0  0  0  0  0  0
   25.2290  -11.0080   18.8740 O   0  0  0  0  0  0  0  0  0  0  0  0
   23.7680   -9.2780   17.4460 C   0  0  0  0  0  0  0  0  0  0  0  0
   24.5720   -8.3120   18.3010 C   0  0  0  0  0  0  0  0  0  0  0  0
   24.0110   -7.4640   18.9980 O   0  0  0  0  0  0  0  0  0  0  0  0
   25.8930   -8.4410   18.2550 N   0  0  0  0  0  0  0  0  0  0  0  0
  2  1  1  6
  3  2  1  0
  4  3  2  0
  5  2  1  0
  6  5  1  0
  5  7  1  6
  8  6  1  0
  9  3  1  0
 10  9  1  0
 11 10  1  0
 12 11  2  0
 10 13  1  6
 14 13  1  0
 15 14  1  0
 16 15  1  0
 17 16  1  0
 18 11  1  0
 19 18  1  0
 20 19  1  0
 21 20  2  0
 19 22  1  1
 23 22  1  0
 24 23  1  0
 25 24  1  0
 26 25  1  0
 27 26  1  0
 28 26  2  0
 29 20  1  0
 30 29  1  0
 31 30  1  0
 32 31  2  0
 30 33  1  1
 34 33  1  0
 35 31  1  0
 36 35  1  0
 36 37  1  6
 38 37  1  0
 39 38  1  0
 40 39  1  0
 41 40  1  0
 42 41  1  0
 43 36  1  0
 44 43  1  0
 45 43  1  0
 46 45  1  0
 47 46  1  0
 48 47  2  0
 46 49  1  1
 50 49  1  0
 51 50  1  0
 52 51  1  0
 53 52  1  0
 54 47  1  0
 55 54  1  0
 56 55  1  0
 57 56  2  0
 55 58  1  1
 59 58  1  0
 60 59  2  0
 61 59  1  0
M  END
$$$$
5W9C
     RDKit          3D

 29 31  0  0  0  0  0  0  0  0999 V2000
   12.4250   -9.1760  -31.9710 C   0  0  0  0  0  0  0  0  0  0  0  0
   13.6900   -9.8550  -31.6000 C   0  0  0  0  0  0  0  0  0  0  0  0
   13.5840  -10.3800  -30.1910 C   0  0  1  0  0  0  0  0  0  0  0  0
   12.7340  -11.6020  -30.2010 C   0  0  0  0  0  0  0  0  0  0  0  0
   11.9080  -11.7300  -29.1630 C   0  0  0  0  0  0  0  0  0  0  0  0
   11.0690  -12.7990  -29.0920 C   0  0  0  0  0  0  0  0  0  0  0  0
   11.1020  -13.7390  -30.1350 C   0  0  0  0  0  0  0  0  0  0  0  0
   11.9060  -13.6060  -31.1750 C   0  0  0  0  0  0  0  0  0  0  0  0
   12.7550  -12.5290  -31.2360 C   0  0  0  0  0  0  0  0  0  0  0  0
   14.9590  -10.5820  -29.6200 C   0  0  1  0  0  0  0  0  0  0  0  0
   15.7430   -9.2910  -29.5190 C   0  0  0  0  0  0  0  0  0  0  0  0
   17.0880   -9.3490  -29.2680 C   0  0  0  0  0  0  0  0  0  0  0  0
   17.8600   -8.2200  -29.1470 C   0  0  0  0  0  0  0  0  0  0  0  0
   17.2980   -6.9780  -29.3070 C   0  0  0  0  0  0  0  0  0  0  0  0
   18.0600   -5.8600  -29.1940 O   0  0  0  0  0  0  0  0  0  0  0  0
   15.9220   -6.9300  -29.5770 C   0  0  0  0  0  0  0  0  0  0  0  0
   15.1640   -8.0630  -29.6590 C   0  0  0  0  0  0  0  0  0  0  0  0
   15.0270  -11.3540  -28.2860 C   0  0  0  0  0  0  0  0  0  0  0  0
   14.9300  -10.7830  -27.0460 C   0  0  0  0  0  0  0  0  0  0  0  0
   15.0200  -11.5860  -25.9090 C   0  0  0  0  0  0  0  0  0  0  0  0
   15.2520  -12.9300  -25.9850 C   0  0  1  0  0  0  0  0  0  0  0  0
   15.0200  -13.7100  -24.8420 O   0  0  0  0  0  0  0  0  0  0  0  0
   16.2360  -13.8600  -24.2580 C   0  0  0  0  0  0  0  0  0  0  0  0
   16.1300  -13.4050  -23.0040 C   0  0  0  0  0  0  0  0  0  0  0  0
   16.8470  -14.0370  -21.8790 N   0  0  0  0  0  0  0  0  0  0  0  0
   16.7200  -15.3720  -21.5210 C   0  0  0  0  0  0  0  0  0  0  0  0
   16.4540  -13.1360  -20.8290 C   0  0  0  0  0  0  0  0  0  0  0  0
   15.3710  -13.4840  -27.2220 C   0  0  0  0  0  0  0  0  0  0  0  0
   15.2510  -12.6890  -28.3650 C   0  0  0  0  0  0  0  0  0  0  0  0
  2  1  1  0
  3  2  1  6
  4  3  1  0
  5  4  1  0
  6  5  1  0
  7  6  1  0
  8  7  1  0
  9  8  1  0
  9  4  1  0
 10  3  1  0
 10 11  1  1
 12 11  1  0
 13 12  1  0
 14 13  1  0
 15 14  1  0
 16 14  1  0
 17 16  1  0
 17 11  1  0
 18 10  1  0
 19 18  1  0
 20 19  1  0
 21 20  1  0
 21 22  1  6
 23 22  1  0
 24 23  1  0
 25 24  1  0
 26 25  1  0
 27 25  1  0
 28 21  1  0
 29 18  1  0
 29 28  1  0
M  END
$$$$
4IW8
     RDKit          3D

 43 45  0  0  0  0  0  0  0  0999 V2000
   -3.2350   18.1350    5.0020 C   0  0  0  0  0  0  0  0  0  0  0  0
   -4.4250   17.7970    5.8140 C   0  0  0  0  0  0  0  0  0  0  0  0
   -5.5130   18.7770    5.9610 C   0  0  0  0  0  0  0  0  0  0  0  0
   -5.4140   20.1060    5.2910 C   0  0  0  0  0  0  0  0  0  0  0  0
   -4.2420   20.4460    4.4900 C   0  0  0  0  0  0  0  0  0  0  0  0
   -3.1320   19.4410    4.3440 C   0  0  0  0  0  0  0  0  0  0  0  0
   -6.3320   21.2960    5.2550 C   0  0  0  0  0  0  0  0  0  0  0  0
   -5.7140   22.2910    4.4500 N   0  0  0  0  0  0  0  0  0  0  0  0
   -4.4430   21.7990    3.9680 N   0  0  0  0  0  0  0  0  0  0  0  0
   -7.6560   21.4410    5.9050 C   0  0  0  0  0  0  0  0  0  0  0  0
   -3.5070   22.6250    3.0850 C   0  0  2  0  0  0  0  0  0  0  0  0
   -2.3840   23.4190    3.8630 C   0  0  1  0  0  0  0  0  0  0  0  0
   -2.4870   24.8630    4.0360 C   0  0  2  0  0  0  0  0  0  0  0  0
   -1.6690   25.5510    5.1790 C   0  0  2  0  0  0  0  0  0  0  0  0
   -3.5570   25.6920    3.2230 C   0  0  2  0  0  0  0  0  0  0  0  0
   -7.9070   20.9220    7.2500 C   0  0  0  0  0  0  0  0  0  0  0  0
   -9.2330   21.0860    7.8540 C   0  0  0  0  0  0  0  0  0  0  0  0
  -10.2970   21.7660    7.1150 C   0  0  0  0  0  0  0  0  0  0  0  0
  -10.0430   22.2850    5.7700 C   0  0  0  0  0  0  0  0  0  0  0  0
   -8.7200   22.1190    5.1660 C   0  0  0  0  0  0  0  0  0  0  0  0
   -8.4590   22.6250    3.8480 O   0  0  0  0  0  0  0  0  0  0  0  0
  -11.6170   21.9290    7.7160 O   0  0  0  0  0  0  0  0  0  0  0  0
   -1.8520   19.7530    3.4870 C   0  0  2  0  0  0  0  0  0  0  0  0
   -2.2340   20.0780    2.1830 F   0  0  0  0  0  0  0  0  0  0  0  0
   -1.0440   18.6180    3.4460 F   0  0  0  0  0  0  0  0  0  0  0  0
   -1.1390   20.8080    4.0490 F   0  0  0  0  0  0  0  0  0  0  0  0
   -2.4760   17.4500    4.8990 H   0  0  0  0  0  0  0  0  0  0  0  0
   -4.4910   16.8870    6.2690 H   0  0  0  0  0  0  0  0  0  0  0  0
   -6.3410   18.5450    6.5230 H   0  0  0  0  0  0  0  0  0  0  0  0
   -4.0820   23.3090    2.5790 H   0  0  0  0  0  0  0  0  0  0  0  0
   -3.0580   22.0030    2.3970 H   0  0  0  0  0  0  0  0  0  0  0  0
   -1.7340   22.9040    4.4430 H   0  0  0  0  0  0  0  0  0  0  0  0
   -1.8320   26.5620    5.1540 H   0  0  0  0  0  0  0  0  0  0  0  0
   -0.6770   25.3640    5.0460 H   0  0  0  0  0  0  0  0  0  0  0  0
   -1.9690   25.1790    6.0840 H   0  0  0  0  0  0  0  0  0  0  0  0
   -3.3480   25.6290    2.2160 H   0  0  0  0  0  0  0  0  0  0  0  0
   -3.5250   26.6650    3.5140 H   0  0  0  0  0  0  0  0  0  0  0  0
   -4.4910   25.3120    3.4030 H   0  0  0  0  0  0  0  0  0  0  0  0
   -7.1640   20.4480    7.7650 H   0  0  0  0  0  0  0  0  0  0  0  0
   -9.4140   20.7270    8.7910 H   0  0  0  0  0  0  0  0  0  0  0  0
  -10.7870   22.7590    5.2540 H   0  0  0  0  0  0  0  0  0  0  0  0
   -7.9140   23.3830    3.9070 H   0  0  0  0  0  0  0  0  0  0  0  0
  -12.2720   21.6770    7.1020 H   0  0  0  0  0  0  0  0  0  0  0  0
  2  1  1  0
  3  2  1  0
  4  3  1  0
  5  4  1  0
  6  5  1  0
  6  1  1  0
  7  4  1  0
  8  7  1  0
  9  8  1  0
  9  5  1  0
 10  7  1  0
 11  9  1  0
 12 11  1  0
 13 12  1  1
 14 13  1  0
 15 13  1  0
 16 10  1  0
 17 16  1  0
 18 17  1  0
 19 18  1  0
 20 10  1  0
 20 19  1  0
 21 20  1  0
 22 18  1  0
 23  6  1  0
 23 24  1  6
 25 23  1  0
 26 23  1  0
 27  1  1  0
 28  2  1  0
 29  3  1  0
 11 30  1  6
 31 11  1  0
 12 32  1  1
 14 33  1  1
 34 14  1  0
 35 14  1  0
 15 36  1  6
 37 15  1  0
 38 15  1  0
 39 16  1  0
 40 17  1  0
 41 19  1  0
 42 21  1  0
 43 22  1  0
M  END
$$$$
2QA6
     RDKit          3D

 79 79  0  0  0  0  0  0  0  0999 V2000
  -26.0340  -16.5790   -8.9950 N   0  0  0  0  0  0  0  0  0  0  0  0
  -25.0790  -17.5520   -9.5850 C   0  0  2  0  0  0  0  0  0  0  0  0
  -24.1030  -16.8850  -10.5610 C   0  0  0  0  0  0  0  0  0  0  0  0
  -23.1680  -17.5370  -11.0110 O   0  0  0  0  0  0  0  0  0  0  0  0
  -25.8620  -18.6620  -10.2990 C   0  0  0  0  0  0  0  0  0  0  0  0
  -25.1180  -20.0000  -10.4830 C   0  0  0  0  0  0  0  0  0  0  0  0
  -25.1440  -20.8480   -9.2240 C   0  0  0  0  0  0  0  0  0  0  0  0
  -26.5040  -21.5500   -9.0270 C   0  0  0  0  0  0  0  0  0  0  0  0
  -26.8340  -22.5790  -10.0660 N   0  0  0  0  0  0  0  0  0  0  0  0
  -24.3140  -15.6010  -10.8890 N   0  0  0  0  0  0  0  0  0  0  0  0
  -23.4320  -14.8670  -11.8230 C   0  0  2  0  0  0  0  0  0  0  0  0
  -22.1200  -14.5590  -11.1570 C   0  0  0  0  0  0  0  0  0  0  0  0
  -21.0560  -14.6080  -11.7810 O   0  0  0  0  0  0  0  0  0  0  0  0
  -23.9680  -13.4830  -12.2270 C   0  0  2  0  0  0  0  0  0  0  0  0
  -25.3550  -13.5310  -12.8430 C   0  0  0  0  0  0  0  0  0  0  0  0
  -23.0470  -12.8260  -13.2280 C   0  0  0  0  0  0  0  0  0  0  0  0
  -26.0390  -12.1630  -12.7080 C   0  0  0  0  0  0  0  0  0  0  0  0
  -22.2120  -14.1850   -9.8900 N   0  0  0  0  0  0  0  0  0  0  0  0
  -21.0320  -13.8260   -9.1170 C   0  0  2  0  0  0  0  0  0  0  0  0
  -20.2240  -15.0970   -9.0140 C   0  0  0  0  0  0  0  0  0  0  0  0
  -19.0260  -15.1140   -9.2950 O   0  0  0  0  0  0  0  0  0  0  0  0
  -21.4250  -13.3210   -7.7260 C   0  0  0  0  0  0  0  0  0  0  0  0
  -20.3000  -13.1370   -6.7100 C   0  0  0  0  0  0  0  0  0  0  0  0
  -19.2630  -12.1770   -7.2500 C   0  0  0  0  0  0  0  0  0  0  0  0
  -20.8550  -12.6250   -5.3990 C   0  0  0  0  0  0  0  0  0  0  0  0
  -20.9180  -16.1610   -8.6210 N   0  0  0  0  0  0  0  0  0  0  0  0
  -20.3400  -17.4850   -8.5370 C   0  0  2  0  0  0  0  0  0  0  0  0
  -19.5480  -17.7360   -9.8160 C   0  0  0  0  0  0  0  0  0  0  0  0
  -18.3340  -17.9710   -9.7810 O   0  0  0  0  0  0  0  0  0  0  0  0
  -21.4580  -18.5240   -8.3550 C   0  0  0  0  0  0  0  0  0  0  0  0
  -20.9910  -19.8300   -7.7990 C   0  0  0  0  0  0  0  0  0  0  0  0
  -20.5520  -19.9730   -6.5000 N   0  0  0  0  0  0  0  0  0  0  0  0
  -20.9250  -21.0620   -8.3560 C   0  0  0  0  0  0  0  0  0  0  0  0
  -20.2240  -21.2360   -6.2850 C   0  0  0  0  0  0  0  0  0  0  0  0
  -20.4460  -21.9190   -7.3930 N   0  0  0  0  0  0  0  0  0  0  0  0
  -20.2330  -17.6290  -10.9520 N   0  0  0  0  0  0  0  0  0  0  0  0
  -19.6200  -17.9220  -12.2410 C   0  0  2  0  0  0  0  0  0  0  0  0
  -18.4000  -17.0440  -12.5110 C   0  0  0  0  0  0  0  0  0  0  0  0
  -17.3340  -17.5640  -12.8850 O   0  0  0  0  0  0  0  0  0  0  0  0
  -20.6320  -17.7860  -13.3830 C   0  0  0  0  0  0  0  0  0  0  0  0
  -20.2560  -18.6560  -14.5950 C   0  0  0  0  0  0  0  0  0  0  0  0
  -21.1740  -18.4610  -15.8020 C   0  0  0  0  0  0  0  0  0  0  0  0
  -20.7670  -17.3110  -16.6150 N   0  0  0  0  0  0  0  0  0  0  0  0
  -21.3030  -16.0890  -16.5670 C   0  0  0  0  0  0  0  0  0  0  0  0
  -22.3100  -15.7920  -15.7400 N   0  0  0  0  0  0  0  0  0  0  0  0
  -20.8240  -15.1450  -17.3680 N   0  0  0  0  0  0  0  0  0  0  0  0
  -18.5640  -15.7280  -12.3150 N   0  0  0  0  0  0  0  0  0  0  0  0
  -17.4810  -14.7440  -12.5100 C   0  0  2  0  0  0  0  0  0  0  0  0
  -16.2170  -15.0210  -11.6640 C   0  0  0  0  0  0  0  0  0  0  0  0
  -15.1180  -14.6510  -12.0620 O   0  0  0  0  0  0  0  0  0  0  0  0
  -17.9980  -13.3030  -12.2510 C   0  0  0  0  0  0  0  0  0  0  0  0
  -18.5190  -12.4760  -13.4370 C   0  0  0  0  0  0  0  0  0  0  0  0
  -19.1660  -13.3510  -14.4720 C   0  0  0  0  0  0  0  0  0  0  0  0
  -19.4880  -11.3980  -12.9760 C   0  0  0  0  0  0  0  0  0  0  0  0
  -16.3600  -15.6630  -10.5080 N   0  0  0  0  0  0  0  0  0  0  0  0
  -15.1960  -15.9570   -9.6630 C   0  0  2  0  0  0  0  0  0  0  0  0
  -14.4020  -17.1740  -10.1900 C   0  0  0  0  0  0  0  0  0  0  0  0
  -13.1850  -17.2910   -9.9580 O   0  0  0  0  0  0  0  0  0  0  0  0
  -15.6110  -16.0960   -8.1830 C   0  0  0  0  0  0  0  0  0  0  0  0
  -16.0010  -14.7380   -7.5230 C   0  0  0  0  0  0  0  0  0  0  0  0
  -16.5060  -14.8920   -6.0960 C   0  0  0  0  0  0  0  0  0  0  0  0
  -14.8240  -13.7480   -7.5420 C   0  0  0  0  0  0  0  0  0  0  0  0
  -15.0890  -18.0410  -10.9380 N   0  0  0  0  0  0  0  0  0  0  0  0
  -14.4760  -19.2090  -11.5650 C   0  0  2  0  0  0  0  0  0  0  0  0
  -13.6560  -18.8960  -12.8170 C   0  0  0  0  0  0  0  0  0  0  0  0
  -12.5520  -19.4270  -12.9860 O   0  0  0  0  0  0  0  0  0  0  0  0
  -15.5530  -20.2110  -11.9640 C   0  0  0  0  0  0  0  0  0  0  0  0
  -16.6170  -20.4050  -10.9170 C   0  0  0  0  0  0  0  0  0  0  0  0
  -17.0800  -21.8310  -10.8420 C   0  0  0  0  0  0  0  0  0  0  0  0
  -16.4290  -22.6760  -10.2200 O   0  0  0  0  0  0  0  0  0  0  0  0
  -18.2140  -22.1150  -11.4740 N   0  0  0  0  0  0  0  0  0  0  0  0
  -14.2250  -18.0770  -13.7060 N   0  0  0  0  0  0  0  0  0  0  0  0
  -13.6250  -17.7810  -15.0170 C   0  0  2  0  0  0  0  0  0  0  0  0
  -12.0950  -17.8810  -15.0500 C   0  0  0  0  0  0  0  0  0  0  0  0
  -11.3990  -17.1120  -14.3840 O   0  0  0  0  0  0  0  0  0  0  0  0
  -14.0770  -16.3990  -15.5230 C   0  0  0  0  0  0  0  0  0  0  0  0
  -15.0900  -16.4930  -16.6690 C   0  0  0  0  0  0  0  0  0  0  0  0
  -16.2410  -16.9170  -16.4170 O   0  0  0  0  0  0  0  0  0  0  0  0
  -14.7310  -16.1470  -17.8220 O   0  0  0  0  0  0  0  0  0  0  0  0
  2  1  1  6
  3  2  1  0
  4  3  2  0
  5  2  1  0
  6  5  1  0
  7  6  1  0
  8  7  1  0
  9  8  1  0
 10  3  1  0
 11 10  1  1
 12 11  1  0
 13 12  2  0
 14 11  1  0
 15 14  1  0
 14 16  1  6
 17 15  1  0
 18 12  1  0
 19 18  1  0
 20 19  1  0
 21 20  2  0
 19 22  1  1
 23 22  1  0
 24 23  1  0
 25 23  1  0
 26 20  1  0
 27 26  1  0
 28 27  1  0
 29 28  2  0
 27 30  1  6
 31 30  1  0
 32 31  1  0
 33 31  2  0
 34 32  2  0
 35 34  1  0
 35 33  1  0
 36 28  1  0
 37 36  1  0
 38 37  1  0
 39 38  2  0
 37 40  1  6
 41 40  1  0
 42 41  1  0
 43 42  1  0
 44 43  1  0
 45 44  1  0
 46 44  2  0
 47 38  1  0
 48 47  1  0
 49 48  1  0
 50 49  2  0
 48 51  1  1
 52 51  1  0
 53 52  1  0
 54 52  1  0
 55 49  1  0
 56 55  1  0
 57 56  1  0
 58 57  2  0
 56 59  1  1
 60 59  1  0
 61 60  1  0
 62 60  1  0
 63 57  1  0
 64 63  1  0
 65 64  1  0
 66 65  2  0
 64 67  1  6
 68 67  1  0
 69 68  1  0
 70 69  2  0
 71 69  1  0
 72 65  1  0
 73 72  1  0
 74 73  1  0
 75 74  2  0
 73 76  1  1
 77 76  1  0
 78 77  2  0
 79 77  1  0
M  END
$$$$
6ZOS
     RDKit          3D

 34 39  0  0  0  0  0  0  0  0999 V2000
   18.3860   -8.9830   11.9940 C   0  0  2  0  0  0  0  0  0  0  0  0
   19.2980   -8.7240   13.1770 C   0  0  0  0  0  0  0  0  0  0  0  0
   20.4310   -9.7140   13.2680 C   0  0  0  0  0  0  0  0  0  0  0  0
   22.6010  -10.3380   14.1380 C   0  0  0  0  0  0  0  0  0  0  0  0
   21.9740   -8.3340   14.8890 C   0  0  0  0  0  0  0  0  0  0  0  0
   21.5510   -9.4030   14.0650 C   0  0  0  0  0  0  0  0  0  0  0  0
   19.2070  -11.3030   11.7070 C   0  0  1  0  0  0  0  0  0  0  0  0
   17.0810  -10.5880   10.8190 C   0  0  0  0  0  0  0  0  0  0  0  0
   15.6530  -10.6980   11.3690 C   0  0  2  0  0  0  0  0  0  0  0  0
   15.1510  -11.9280   12.0070 C   0  0  0  0  0  0  0  0  0  0  0  0
   14.6380  -11.5010   10.6640 C   0  0  0  0  0  0  0  0  0  0  0  0
   18.7820  -12.7450   11.9520 C   0  0  0  0  0  0  0  0  0  0  0  0
   18.8700  -13.6970   10.9510 C   0  0  0  0  0  0  0  0  0  0  0  0
   18.2940  -17.4200   13.7790 C   0  0  2  0  0  0  0  0  0  0  0  0
   17.6730  -18.7790   14.1270 C   0  0  0  0  0  0  0  0  0  0  0  0
   16.9080  -18.8200   16.5200 C   0  0  0  0  0  0  0  0  0  0  0  0
   17.1280  -20.1470   17.2120 C   0  0  0  0  0  0  0  0  0  0  0  0
   18.0910  -17.0430   15.2500 C   0  0  0  0  0  0  0  0  0  0  0  0
   16.1780  -22.2520   16.7520 F   0  0  0  0  0  0  0  0  0  0  0  0
   17.0600  -21.3200   16.2390 C   0  0  0  0  0  0  0  0  0  0  0  0
   17.9590  -18.4890   15.5540 N   0  0  0  0  0  0  0  0  0  0  0  0
   17.6070  -16.6110   12.7840 N   0  0  0  0  0  0  0  0  0  0  0  0
   18.0150  -15.3180   12.4870 C   0  0  0  0  0  0  0  0  0  0  0  0
   18.4800  -14.9940   11.2230 C   0  0  0  0  0  0  0  0  0  0  0  0
   17.9640  -14.2960   13.4260 C   0  0  0  0  0  0  0  0  0  0  0  0
   18.3390  -13.0370   13.1810 N   0  0  0  0  0  0  0  0  0  0  0  0
   18.0420  -10.4180   11.9120 N   0  0  0  0  0  0  0  0  0  0  0  0
   15.2120   -9.4900   11.9020 F   0  0  0  0  0  0  0  0  0  0  0  0
   18.9620   -8.4520   10.6960 C   0  0  0  0  0  0  0  0  0  0  0  0
   20.3910  -10.9330   12.5760 C   0  0  0  0  0  0  0  0  0  0  0  0
   21.4560  -11.8230   12.6790 C   0  0  0  0  0  0  0  0  0  0  0  0
   22.5630  -11.5440   13.4550 C   0  0  0  0  0  0  0  0  0  0  0  0
   23.1570   -8.5710   15.4200 N   0  0  0  0  0  0  0  0  0  0  0  0
   23.5380   -9.7970   14.9580 N   0  0  0  0  0  0  0  0  0  0  0  0
  2  1  1  0
  3  2  1  0
  6  3  1  0
  6  5  1  0
  6  4  1  0
  9  8  1  0
 10  9  1  0
 11 10  1  0
 11  9  1  0
  7 12  1  1
 13 12  1  0
 15 14  1  0
 17 16  1  0
 18 14  1  0
 20 19  1  0
 20 17  1  0
 21 18  1  0
 21 15  1  0
 21 16  1  0
 14 22  1  6
 23 22  1  0
 24 23  1  0
 24 13  1  0
 25 23  1  0
 26 25  1  0
 26 12  1  0
 27  7  1  0
 27  8  1  0
 27  1  1  0
  9 28  1  1
  1 29  1  6
 30  7  1  0
 30  3  1  0
 31 30  1  0
 32 31  1  0
 32  4  1  0
 33  5  1  0
 34 33  1  0
 34  4  1  0
M  END
$$$$
7RRX
     RDKit          3D

 45 50  0  0  0  0  0  0  0  0999 V2000
    2.5560   10.1400   22.5880 C   0  0  0  0  0  0  0  0  0  0  0  0
    0.7930   10.5440   21.0670 C   0  0  0  0  0  0  0  0  0  0  0  0
  -13.5200    5.7470   16.6730 C   0  0  0  0  0  0  0  0  0  0  0  0
  -11.8640    3.7840   18.0010 C   0  0  0  0  0  0  0  0  0  0  0  0
   -5.7160    7.4880   25.3350 C   0  0  2  0  0  0  0  0  0  0  0  0
   -6.1740    6.7650   22.2380 C   0  0  0  0  0  0  0  0  0  0  0  0
   -7.0120    5.7740   22.5630 C   0  0  0  0  0  0  0  0  0  0  0  0
   -8.6330    6.3010   20.9440 C   0  0  0  0  0  0  0  0  0  0  0  0
   -6.6240    7.5460   21.2340 C   0  0  0  0  0  0  0  0  0  0  0  0
   -1.6060    9.4430   18.7160 C   0  0  1  0  0  0  0  0  0  0  0  0
    0.0550    9.5190   21.5470 C   0  0  1  0  0  0  0  0  0  0  0  0
  -13.3820    5.7010   18.2080 C   0  0  0  0  0  0  0  0  0  0  0  0
   -5.0920    6.8710   22.9290 N   0  0  0  0  0  0  0  0  0  0  0  0
  -13.3530    4.3520   16.0500 C   0  0  0  0  0  0  0  0  0  0  0  0
   -2.3770    9.2910   22.0680 C   0  0  2  0  0  0  0  0  0  0  0  0
  -12.0060    5.0030   20.0890 C   0  0  0  0  0  0  0  0  0  0  0  0
   -3.6260    6.0200   22.5830 S   0  0  2  0  0  0  0  0  0  0  0  0
   -3.0550    8.0960   20.5060 C   0  0  1  0  0  0  0  0  0  0  0  0
   -2.1750    7.9440   22.6860 C   0  0  0  0  0  0  0  0  0  0  0  0
   -2.5960    7.0080   21.5400 C   0  0  1  0  0  0  0  0  0  0  0  0
    1.8240    9.1550   23.1090 C   0  0  0  0  0  0  0  0  0  0  0  0
    2.0150   10.8370   21.5600 C   0  0  0  0  0  0  0  0  0  0  0  0
    0.6190    8.8680   22.6070 C   0  0  0  0  0  0  0  0  0  0  0  0
   -3.5910    9.0810   21.3700 O   0  0  0  0  0  0  0  0  0  0  0  0
  -12.1230    5.0870   18.6390 N   0  0  0  0  0  0  0  0  0  0  0  0
  -10.5850    4.8460   20.6420 C   0  0  0  0  0  0  0  0  0  0  0  0
   -9.8500    6.0200   20.3600 O   0  0  0  0  0  0  0  0  0  0  0  0
   -1.8480    8.9320   19.9650 C   0  0  2  0  0  0  0  0  0  0  0  0
  -11.9980    3.7810   16.4640 C   0  0  0  0  0  0  0  0  0  0  0  0
   -5.1600    7.9250   24.0250 C   0  0  0  0  0  0  0  0  0  0  0  0
    3.7790   10.4050   23.0930 O   0  0  0  0  0  0  0  0  0  0  0  0
   -4.1440    4.7440   22.0570 O   0  0  0  0  0  0  0  0  0  0  0  0
   -8.1780    5.5350   21.9500 C   0  0  0  0  0  0  0  0  0  0  0  0
   -7.8110    7.3260   20.6130 C   0  0  0  0  0  0  0  0  0  0  0  0
   -1.2020    9.2250   21.1120 C   0  0  1  0  0  0  0  0  0  0  0  0
   -2.3620   10.4010   18.1450 C   0  0  0  0  0  0  0  0  0  0  0  0
   -2.0860   10.9160   16.9370 C   0  0  0  0  0  0  0  0  0  0  0  0
   -1.0210   10.4960   16.2180 C   0  0  0  0  0  0  0  0  0  0  0  0
   -0.2210    9.5650   16.7750 C   0  0  0  0  0  0  0  0  0  0  0  0
   -0.5080    9.0680   18.0020 C   0  0  0  0  0  0  0  0  0  0  0  0
   -0.7370   11.0280   15.0080 O   0  0  0  0  0  0  0  0  0  0  0  0
   -5.9140    8.5030   26.1180 F   0  0  0  0  0  0  0  0  0  0  0  0
   -4.9410    6.6960   25.9940 F   0  0  0  0  0  0  0  0  0  0  0  0
   -6.7900    6.7800   25.2150 F   0  0  0  0  0  0  0  0  0  0  0  0
   -3.0650    5.9840   23.9370 O   0  0  0  0  0  0  0  0  0  0  0  0
  7  6  1  0
  9  6  1  0
 11  2  1  1
 12  3  1  0
 13  6  1  0
 14  3  1  0
 17 13  1  0
 15 19  1  1
 20 18  1  0
 20 19  1  1
 20 17  1  0
 21  1  1  0
 22  2  1  0
 22  1  1  0
 23 11  1  0
 23 21  1  0
 18 24  1  1
 24 15  1  0
 25 16  1  0
 25  4  1  0
 25 12  1  0
 26 16  1  0
 27 26  1  0
 27  8  1  0
 28 18  1  0
 28 10  1  1
 29 14  1  0
 29  4  1  0
 30  5  1  0
 30 13  1  0
 31  1  1  0
 17 32  1  6
 33  8  1  0
 33  7  1  0
 34  9  1  0
 34  8  1  0
 35 28  1  0
 35 11  1  6
 35 15  1  0
 10 36  1  1
 37 36  1  0
 38 37  1  0
 39 38  1  0
 40 39  1  0
 40 10  1  0
 41 38  1  0
  5 42  1  1
 43  5  1  0
 44  5  1  0
 45 17  1  0
M  END
$$$$
8AWG
     RDKit          3D

 42 43  0  0  0  0  0  0  0  0999 V2000
  -12.6600   -8.1910   15.0340 N   0  0  0  0  0  0  0  0  0  0  0  0
  -13.6720   -9.2840   14.8190 C   0  0  2  0  0  0  0  0  0  0  0  0
  -13.0630  -10.5010   14.1370 C   0  0  0  0  0  0  0  0  0  0  0  0
  -12.2350  -10.3810   13.2400 O   0  0  0  0  0  0  0  0  0  0  0  0
  -14.8400   -8.7450   14.0120 C   0  0  0  0  0  0  0  0  0  0  0  0
  -15.5600   -7.6580   14.7340 C   0  0  0  0  0  0  0  0  0  0  0  0
  -16.4280   -7.9690   15.7690 C   0  0  0  0  0  0  0  0  0  0  0  0
  -15.3140   -6.3190   14.4370 C   0  0  0  0  0  0  0  0  0  0  0  0
  -17.0850   -6.9630   16.4630 C   0  0  0  0  0  0  0  0  0  0  0  0
  -15.9770   -5.3080   15.1250 C   0  0  0  0  0  0  0  0  0  0  0  0
  -16.8480   -5.6340   16.1440 C   0  0  0  0  0  0  0  0  0  0  0  0
  -13.4450  -11.7220   14.5480 N   0  0  0  0  0  0  0  0  0  0  0  0
  -12.8660  -12.9210   13.9530 C   0  0  2  0  0  0  0  0  0  0  0  0
  -13.4440  -13.2220   12.5630 C   0  0  0  0  0  0  0  0  0  0  0  0
  -14.5010  -12.7350   12.2080 O   0  0  0  0  0  0  0  0  0  0  0  0
  -13.2470  -13.9760   14.9900 C   0  0  0  0  0  0  0  0  0  0  0  0
  -14.6000  -13.5240   15.4810 C   0  0  0  0  0  0  0  0  0  0  0  0
  -14.4550  -12.0180   15.5810 C   0  0  0  0  0  0  0  0  0  0  0  0
  -12.7440  -14.0540   11.7920 N   0  0  0  0  0  0  0  0  0  0  0  0
  -13.1420  -14.4010   10.4820 C   0  0  2  0  0  0  0  0  0  0  0  0
  -14.2630  -15.4370   10.4760 C   0  0  0  0  0  0  0  0  0  0  0  0
  -14.1780  -16.4150   11.1860 O   0  0  0  0  0  0  0  0  0  0  0  0
  -11.9690  -14.9920    9.7060 C   0  0  0  0  0  0  0  0  0  0  0  0
  -15.2350  -15.2100    9.6000 N   0  0  0  0  0  0  0  0  0  0  0  0
  -16.3090  -16.1510    9.2300 C   0  0  1  0  0  0  0  0  0  0  0  0
  -17.6370  -15.8320    9.9340 C   0  0  1  0  0  0  0  0  0  0  0  0
  -17.5390  -15.9840   11.4380 C   0  0  0  0  0  0  0  0  0  0  0  0
  -17.9590  -14.4420    9.6030 O   0  0  0  0  0  0  0  0  0  0  0  0
  -19.3980  -13.8060    9.9800 P   0  0  0  0  0  0  0  0  0  0  0  0
  -19.4100  -12.5810    9.0580 O   0  0  0  0  0  0  0  0  0  0  0  0
  -19.3790  -13.4400   11.4440 O   0  0  0  0  0  0  0  0  0  0  0  0
  -20.4060  -14.8330    9.6440 O   0  0  0  0  0  0  0  0  0  0  0  0
  -16.4900  -16.1150    7.7160 C   0  0  0  0  0  0  0  0  0  0  0  0
  -16.0580  -15.1310    7.0790 O   0  0  0  0  0  0  0  0  0  0  0  0
  -17.0770  -17.1670    7.1710 N   0  0  0  0  0  0  0  0  0  0  0  0
  -17.3710  -17.2640    5.7720 C   0  0  2  0  0  0  0  0  0  0  0  0
  -18.7820  -17.6070    5.5010 C   0  0  0  0  0  0  0  0  0  0  0  0
  -19.5940  -18.0170    6.3510 O   0  0  0  0  0  0  0  0  0  0  0  0
  -16.4790  -18.2880    5.0570 C   0  0  0  0  0  0  0  0  0  0  0  0
  -15.0680  -17.8940    5.2140 C   0  0  0  0  0  0  0  0  0  0  0  0
  -16.7230  -19.6820    5.5940 C   0  0  0  0  0  0  0  0  0  0  0  0
  -19.1520  -17.5150    4.2970 O   0  0  0  0  0  0  0  0  0  0  0  0
  2  1  1  6
  3  2  1  0
  4  3  2  0
  5  2  1  0
  6  5  1  0
  7  6  2  0
  8  6  1  0
  9  7  1  0
 10  8  2  0
 11  9  2  0
 11 10  1  0
 12  3  1  0
 13 12  1  0
 13 14  1  6
 15 14  2  0
 16 13  1  0
 17 16  1  0
 18 17  1  0
 18 12  1  0
 19 14  1  0
 20 19  1  0
 21 20  1  0
 22 21  2  0
 20 23  1  6
 24 21  1  0
 25 24  1  6
 26 25  1  0
 26 27  1  1
 28 26  1  0
 29 28  1  0
 30 29  1  0
 31 29  1  0
 32 29  1  0
 33 25  1  0
 34 33  1  0
 35 33  1  0
 36 35  1  1
 37 36  1  0
 38 37  2  0
 39 36  1  0
 40 39  1  0
 41 39  1  0
 42 37  1  0
M  END
$$$$
5DU5
     RDKit          3D

 62 62  0  0  0  0  0  0  0  0999 V2000
   28.2270   16.4040    6.9420 N   0  0  0  0  0  0  0  0  0  0  0  0
   29.2100   16.8630    5.9660 C   0  0  2  0  0  0  0  0  0  0  0  0
   28.8460   16.4090    4.5550 C   0  0  0  0  0  0  0  0  0  0  0  0
   28.6440   17.2320    3.6630 O   0  0  0  0  0  0  0  0  0  0  0  0
   30.6080   16.3630    6.3360 C   0  0  0  0  0  0  0  0  0  0  0  0
   28.7650   15.0960    4.3570 N   0  0  0  0  0  0  0  0  0  0  0  0
   28.4210   14.5380    3.0530 C   0  0  2  0  0  0  0  0  0  0  0  0
   26.9720   14.8440    2.6950 C   0  0  0  0  0  0  0  0  0  0  0  0
   26.6630   15.2040    1.5580 O   0  0  0  0  0  0  0  0  0  0  0  0
   28.6460   13.0140    3.0120 C   0  0  2  0  0  0  0  0  0  0  0  0
   30.1310   12.6930    3.1890 C   0  0  0  0  0  0  0  0  0  0  0  0
   28.1400   12.4300    1.7020 C   0  0  0  0  0  0  0  0  0  0  0  0
   30.4420   11.2140    3.1500 C   0  0  0  0  0  0  0  0  0  0  0  0
   26.0890   14.7080    3.6790 N   0  0  0  0  0  0  0  0  0  0  0  0
   24.6710   14.9800    3.4860 C   0  0  2  0  0  0  0  0  0  0  0  0
   24.4340   16.4280    3.0600 C   0  0  0  0  0  0  0  0  0  0  0  0
   23.4970   16.7180    2.3180 O   0  0  0  0  0  0  0  0  0  0  0  0
   23.8940   14.6690    4.7660 C   0  0  0  0  0  0  0  0  0  0  0  0
   22.3760   14.8520    4.7220 C   0  0  0  0  0  0  0  0  0  0  0  0
   21.7760   14.0510    3.5840 C   0  0  0  0  0  0  0  0  0  0  0  0
   21.7470   14.4480    6.0470 C   0  0  0  0  0  0  0  0  0  0  0  0
   25.2920   17.3290    3.5290 N   0  0  0  0  0  0  0  0  0  0  0  0
   25.2070   18.7350    3.1540 C   0  0  2  0  0  0  0  0  0  0  0  0
   25.3860   18.9250    1.6490 C   0  0  0  0  0  0  0  0  0  0  0  0
   24.5900   19.6030    1.0020 O   0  0  0  0  0  0  0  0  0  0  0  0
   26.2580   19.5560    3.9050 C   0  0  0  0  0  0  0  0  0  0  0  0
   26.0390   19.6190    5.3840 C   0  0  0  0  0  0  0  0  0  0  0  0
   27.0620   19.4580    6.2940 N   0  0  0  0  0  0  0  0  0  0  0  0
   24.9180   19.8380    6.1120 C   0  0  0  0  0  0  0  0  0  0  0  0
   26.5790   19.5660    7.5190 C   0  0  0  0  0  0  0  0  0  0  0  0
   25.2820   19.7980    7.4370 N   0  0  0  0  0  0  0  0  0  0  0  0
   26.4360   18.3180    1.1030 N   0  0  0  0  0  0  0  0  0  0  0  0
   26.7790   18.4810   -0.3070 C   0  0  2  0  0  0  0  0  0  0  0  0
   25.7030   17.9250   -1.2350 C   0  0  0  0  0  0  0  0  0  0  0  0
   25.3710   18.5390   -2.2490 O   0  0  0  0  0  0  0  0  0  0  0  0
   28.1200   17.8080   -0.6080 C   0  0  0  0  0  0  0  0  0  0  0  0
   25.1620   16.7630   -0.8830 N   0  0  0  0  0  0  0  0  0  0  0  0
   24.1560   16.1070   -1.7110 C   0  0  2  0  0  0  0  0  0  0  0  0
   22.8470   16.8870   -1.7280 C   0  0  0  0  0  0  0  0  0  0  0  0
   22.0610   16.7800   -2.6700 O   0  0  0  0  0  0  0  0  0  0  0  0
   23.9150   14.6780   -1.2200 C   0  0  0  0  0  0  0  0  0  0  0  0
   25.0610   13.6930   -1.4650 C   0  0  0  0  0  0  0  0  0  0  0  0
   24.7930   12.3620   -0.7810 C   0  0  0  0  0  0  0  0  0  0  0  0
   25.2880   13.4920   -2.9590 C   0  0  0  0  0  0  0  0  0  0  0  0
   22.6200   17.6740   -0.6810 N   0  0  0  0  0  0  0  0  0  0  0  0
   21.4190   18.4940   -0.5820 C   0  0  2  0  0  0  0  0  0  0  0  0
   21.6000   19.8480   -1.2660 C   0  0  0  0  0  0  0  0  0  0  0  0
   20.6360   20.4400   -1.7490 O   0  0  0  0  0  0  0  0  0  0  0  0
   21.0330   18.7000    0.8840 C   0  0  0  0  0  0  0  0  0  0  0  0
   20.2890   17.5670    1.5930 C   0  0  0  0  0  0  0  0  0  0  0  0
   20.2670   17.8090    3.0930 C   0  0  0  0  0  0  0  0  0  0  0  0
   18.8720   17.4470    1.0560 C   0  0  0  0  0  0  0  0  0  0  0  0
   22.8380   20.3310   -1.3040 N   0  0  0  0  0  0  0  0  0  0  0  0
   23.1280   21.6520   -1.8550 C   0  0  2  0  0  0  0  0  0  0  0  0
   23.1660   21.6480   -3.3820 C   0  0  0  0  0  0  0  0  0  0  0  0
   23.1400   22.7060   -4.0130 O   0  0  0  0  0  0  0  0  0  0  0  0
   24.4570   22.1780   -1.3060 C   0  0  0  0  0  0  0  0  0  0  0  0
   23.2280   20.4580   -3.9710 N   0  0  0  0  0  0  0  0  0  0  0  0
   23.2740   20.3260   -5.4230 C   0  0  2  0  0  0  0  0  0  0  0  0
   21.8840   20.0760   -5.9990 C   0  0  0  0  0  0  0  0  0  0  0  0
   21.3610   18.9630   -5.9250 O   0  0  0  0  0  0  0  0  0  0  0  0
   24.2220   19.1960   -5.8290 C   0  0  0  0  0  0  0  0  0  0  0  0
  2  1  1  0
  3  2  1  0
  4  3  2  0
  2  5  1  1
  6  3  1  0
  7  6  1  1
  8  7  1  0
  9  8  2  0
 10  7  1  0
 11 10  1  0
 10 12  1  6
 13 11  1  0
 14  8  1  0
 15 14  1  0
 16 15  1  0
 17 16  2  0
 15 18  1  1
 19 18  1  0
 20 19  1  0
 21 19  1  0
 22 16  1  0
 23 22  1  0
 24 23  1  0
 25 24  2  0
 23 26  1  1
 27 26  1  0
 28 27  1  0
 29 27  2  0
 30 28  2  0
 31 30  1  0
 31 29  1  0
 32 24  1  0
 33 32  1  0
 34 33  1  0
 35 34  2  0
 33 36  1  1
 37 34  1  0
 38 37  1  0
 39 38  1  0
 40 39  2  0
 38 41  1  1
 42 41  1  0
 43 42  1  0
 44 42  1  0
 45 39  1  0
 46 45  1  0
 47 46  1  0
 48 47  2  0
 46 49  1  1
 50 49  1  0
 51 50  1  0
 52 50  1  0
 53 47  1  0
 54 53  1  0
 55 54  1  0
 56 55  2  0
 54 57  1  1
 58 55  1  0
 59 58  1  0
 60 59  1  0
 61 60  2  0
 59 62  1  1
M  END
$$$$
7BA3
     RDKit          3D

 46 47  0  0  0  0  0  0  0  0999 V2000
   14.9010    5.2900   15.9240 N   0  0  0  0  0  0  0  0  0  0  0  0
   14.0620    6.1140   15.0710 C   0  0  0  0  0  0  0  0  0  0  0  0
   14.6740    7.4710   14.7710 C   0  0  0  0  0  0  0  0  0  0  0  0
   15.4160    8.0240   15.5910 O   0  0  0  0  0  0  0  0  0  0  0  0
   14.3570    8.0120   13.5950 N   0  0  0  0  0  0  0  0  0  0  0  0
   14.9090    9.2770   13.1220 C   0  0  2  0  0  0  0  0  0  0  0  0
   13.7840   10.3120   13.0280 C   0  0  0  0  0  0  0  0  0  0  0  0
   12.8500   10.1220   12.2240 O   0  0  0  0  0  0  0  0  0  0  0  0
   15.5330    9.0770   11.7220 C   0  0  0  0  0  0  0  0  0  0  0  0
   16.8770    8.3440   11.7010 C   0  0  0  0  0  0  0  0  0  0  0  0
   18.0770    9.0470   11.6150 C   0  0  0  0  0  0  0  0  0  0  0  0
   16.9360    6.9500   11.6910 C   0  0  0  0  0  0  0  0  0  0  0  0
   19.3110    8.3710   11.5630 C   0  0  0  0  0  0  0  0  0  0  0  0
   18.1690    6.2720   11.6420 C   0  0  0  0  0  0  0  0  0  0  0  0
   19.3540    6.9800   11.5680 C   0  0  0  0  0  0  0  0  0  0  0  0
   13.7900   11.4070   13.8020 N   0  0  0  0  0  0  0  0  0  0  0  0
   13.0100   12.5890   13.3890 C   0  0  2  0  0  0  0  0  0  0  0  0
   13.5760   13.0870   12.0650 C   0  0  0  0  0  0  0  0  0  0  0  0
   14.6620   12.6970   11.6520 O   0  0  0  0  0  0  0  0  0  0  0  0
   13.2540   13.5990   14.5090 C   0  0  0  0  0  0  0  0  0  0  0  0
   14.5790   13.1920   15.1100 C   0  0  0  0  0  0  0  0  0  0  0  0
   14.6150   11.6730   14.9920 C   0  0  0  0  0  0  0  0  0  0  0  0
   12.8120   13.9260   11.3440 N   0  0  0  0  0  0  0  0  0  0  0  0
   13.2140   14.3400   10.0180 C   0  0  2  0  0  0  0  0  0  0  0  0
   14.3480   15.3500   10.0730 C   0  0  0  0  0  0  0  0  0  0  0  0
   14.2900   16.2750   10.8840 O   0  0  0  0  0  0  0  0  0  0  0  0
   12.0300   14.9690    9.2780 C   0  0  0  0  0  0  0  0  0  0  0  0
   15.3580   15.1460    9.2260 N   0  0  0  0  0  0  0  0  0  0  0  0
   16.4430   16.0890    8.9620 C   0  0  1  0  0  0  0  0  0  0  0  0
   17.7180   15.7200    9.7760 C   0  0  1  0  0  0  0  0  0  0  0  0
   17.4730   15.8980   11.2870 C   0  0  0  0  0  0  0  0  0  0  0  0
   17.9810   14.3580    9.4180 O   0  0  0  0  0  0  0  0  0  0  0  0
   19.4320   13.7310    9.8230 P   0  0  0  0  0  0  0  0  0  0  0  0
   19.4270   12.4410    8.8940 O   0  0  0  0  0  0  0  0  0  0  0  0
   19.4040   13.3640   11.2490 O   0  0  0  0  0  0  0  0  0  0  0  0
   20.5490   14.7310    9.4570 O   0  0  0  0  0  0  0  0  0  0  0  0
   16.7160   16.1080    7.4630 C   0  0  0  0  0  0  0  0  0  0  0  0
   16.4050   15.1360    6.7610 O   0  0  0  0  0  0  0  0  0  0  0  0
   17.2470   17.2060    6.9520 N   0  0  0  0  0  0  0  0  0  0  0  0
   17.5700   17.3050    5.5290 C   0  0  2  0  0  0  0  0  0  0  0  0
   18.9940   17.7200    5.3070 C   0  0  0  0  0  0  0  0  0  0  0  0
   19.7700   18.0380    6.2140 O   0  0  0  0  0  0  0  0  0  0  0  0
   16.6590   18.2910    4.7800 C   0  0  0  0  0  0  0  0  0  0  0  0
   15.2460   17.8400    4.8240 C   0  0  0  0  0  0  0  0  0  0  0  0
   16.8220   19.7030    5.3550 C   0  0  0  0  0  0  0  0  0  0  0  0
   19.4380   17.7580    4.1520 O   0  0  0  0  0  0  0  0  0  0  0  0
  2  1  1  0
  3  2  1  0
  4  3  2  0
  5  3  1  0
  6  5  1  0
  7  6  1  0
  8  7  2  0
  6  9  1  6
 10  9  1  0
 11 10  2  0
 12 10  1  0
 13 11  1  0
 14 12  2  0
 15 14  1  0
 15 13  2  0
 16  7  1  0
 17 16  1  0
 17 18  1  6
 19 18  2  0
 20 17  1  0
 21 20  1  0
 22 21  1  0
 22 16  1  0
 23 18  1  0
 24 23  1  0
 25 24  1  0
 26 25  2  0
 24 27  1  1
 28 25  1  0
 29 28  1  6
 30 29  1  0
 30 31  1  1
 32 30  1  0
 33 32  1  0
 34 33  1  0
 35 33  1  0
 36 33  1  0
 37 29  1  0
 38 37  1  0
 39 37  1  0
 40 39  1  1
 41 40  1  0
 42 41  2  0
 43 40  1  0
 44 43  1  0
 45 43  1  0
 46 41  1  0
M  END
$$$$
5DWI
     RDKit          3D

 71 71  0  0  0  0  0  0  0  0999 V2000
  -32.0750   -4.0080   -8.4000 N   0  0  0  0  0  0  0  0  0  0  0  0
  -30.7280   -4.4090   -8.0130 C   0  0  2  0  0  0  0  0  0  0  0  0
  -30.6940   -5.8600   -7.5400 C   0  0  0  0  0  0  0  0  0  0  0  0
  -31.6470   -6.6120   -7.7460 O   0  0  0  0  0  0  0  0  0  0  0  0
  -30.1870   -3.4840   -6.9200 C   0  0  0  0  0  0  0  0  0  0  0  0
  -29.5940   -6.2420   -6.8990 N   0  0  0  0  0  0  0  0  0  0  0  0
  -29.3830   -7.6270   -6.4910 C   0  0  2  0  0  0  0  0  0  0  0  0
  -29.0490   -7.7540   -5.0040 C   0  0  0  0  0  0  0  0  0  0  0  0
  -28.7830   -6.7610   -4.3290 O   0  0  0  0  0  0  0  0  0  0  0  0
  -28.2670   -8.2550   -7.3290 C   0  0  0  0  0  0  0  0  0  0  0  0
  -29.0640   -8.9900   -4.5120 N   0  0  0  0  0  0  0  0  0  0  0  0
  -28.7570   -9.2960   -3.1150 C   0  0  2  0  0  0  0  0  0  0  0  0
  -27.3260   -8.9160   -2.7520 C   0  0  0  0  0  0  0  0  0  0  0  0
  -27.0590   -8.4020   -1.6620 O   0  0  0  0  0  0  0  0  0  0  0  0
  -28.9560  -10.7970   -2.8210 C   0  0  2  0  0  0  0  0  0  0  0  0
  -30.3760  -11.2310   -3.1850 C   0  0  0  0  0  0  0  0  0  0  0  0
  -28.6460  -11.1050   -1.3660 C   0  0  0  0  0  0  0  0  0  0  0  0
  -30.5770  -12.7290   -3.1760 C   0  0  0  0  0  0  0  0  0  0  0  0
  -26.4150   -9.1740   -3.6830 N   0  0  0  0  0  0  0  0  0  0  0  0
  -24.9930   -8.9250   -3.4890 C   0  0  2  0  0  0  0  0  0  0  0  0
  -24.7000   -7.4610   -3.1600 C   0  0  0  0  0  0  0  0  0  0  0  0
  -23.7550   -7.1590   -2.4320 O   0  0  0  0  0  0  0  0  0  0  0  0
  -24.2200   -9.3510   -4.7380 C   0  0  0  0  0  0  0  0  0  0  0  0
  -22.6990   -9.4210   -4.6220 C   0  0  0  0  0  0  0  0  0  0  0  0
  -22.3070  -10.2840   -3.4430 C   0  0  0  0  0  0  0  0  0  0  0  0
  -22.0950   -9.9670   -5.9060 C   0  0  0  0  0  0  0  0  0  0  0  0
  -25.5150   -6.5570   -3.6970 N   0  0  0  0  0  0  0  0  0  0  0  0
  -25.3820   -5.1340   -3.4030 C   0  0  2  0  0  0  0  0  0  0  0  0
  -25.6290   -4.8690   -1.9220 C   0  0  0  0  0  0  0  0  0  0  0  0
  -24.9060   -4.1010   -1.2880 O   0  0  0  0  0  0  0  0  0  0  0  0
  -26.3590   -4.3070   -4.2430 C   0  0  0  0  0  0  0  0  0  0  0  0
  -26.1320   -4.4060   -5.7190 C   0  0  0  0  0  0  0  0  0  0  0  0
  -25.2720   -3.5690   -6.3980 N   0  0  0  0  0  0  0  0  0  0  0  0
  -26.6650   -5.2320   -6.6500 C   0  0  0  0  0  0  0  0  0  0  0  0
  -25.2780   -3.8820   -7.6810 C   0  0  0  0  0  0  0  0  0  0  0  0
  -26.1160   -4.8870   -7.8610 N   0  0  0  0  0  0  0  0  0  0  0  0
  -26.6580   -5.5140   -1.3810 N   0  0  0  0  0  0  0  0  0  0  0  0
  -27.0500   -5.3130    0.0080 C   0  0  2  0  0  0  0  0  0  0  0  0
  -26.0220   -5.8860    0.9730 C   0  0  0  0  0  0  0  0  0  0  0  0
  -25.6630   -5.2460    1.9620 O   0  0  0  0  0  0  0  0  0  0  0  0
  -28.4200   -5.9440    0.2740 C   0  0  0  0  0  0  0  0  0  0  0  0
  -25.5510   -7.0940    0.6810 N   0  0  0  0  0  0  0  0  0  0  0  0
  -24.6150   -7.7820    1.5620 C   0  0  2  0  0  0  0  0  0  0  0  0
  -23.2640   -7.0750    1.6010 C   0  0  0  0  0  0  0  0  0  0  0  0
  -22.5230   -7.1880    2.5770 O   0  0  0  0  0  0  0  0  0  0  0  0
  -24.4410   -9.2370    1.1240 C   0  0  0  0  0  0  0  0  0  0  0  0
  -25.7320  -10.0550    1.0220 C   0  0  0  0  0  0  0  0  0  0  0  0
  -25.4270  -11.5240    0.7800 C   0  0  0  0  0  0  0  0  0  0  0  0
  -26.5920   -9.8790    2.2710 C   0  0  0  0  0  0  0  0  0  0  0  0
  -22.9570   -6.3390    0.5360 N   0  0  0  0  0  0  0  0  0  0  0  0
  -21.7060   -5.5920    0.4480 C   0  0  2  0  0  0  0  0  0  0  0  0
  -21.7950   -4.2360    1.1540 C   0  0  0  0  0  0  0  0  0  0  0  0
  -20.7730   -3.6080    1.4300 O   0  0  0  0  0  0  0  0  0  0  0  0
  -21.3050   -5.3990   -1.0170 C   0  0  0  0  0  0  0  0  0  0  0  0
  -20.5960   -6.5810   -1.6860 C   0  0  0  0  0  0  0  0  0  0  0  0
  -20.5930   -6.4370   -3.2000 C   0  0  0  0  0  0  0  0  0  0  0  0
  -19.1750   -6.7080   -1.1620 C   0  0  0  0  0  0  0  0  0  0  0  0
  -23.0150   -3.7930    1.4490 N   0  0  0  0  0  0  0  0  0  0  0  0
  -23.2290   -2.5310    2.1560 C   0  0  2  0  0  0  0  0  0  0  0  0
  -23.5470   -2.7590    3.6380 C   0  0  0  0  0  0  0  0  0  0  0  0
  -23.1980   -1.9410    4.4920 O   0  0  0  0  0  0  0  0  0  0  0  0
  -24.3580   -1.7280    1.4970 C   0  0  0  0  0  0  0  0  0  0  0  0
  -24.0290   -1.1890    0.1090 C   0  0  0  0  0  0  0  0  0  0  0  0
  -25.2200   -0.5240   -0.5650 C   0  0  0  0  0  0  0  0  0  0  0  0
  -26.3290   -1.0590   -0.5620 O   0  0  0  0  0  0  0  0  0  0  0  0
  -24.9930    0.6500   -1.1450 N   0  0  0  0  0  0  0  0  0  0  0  0
  -24.2100   -3.8730    3.9330 N   0  0  0  0  0  0  0  0  0  0  0  0
  -24.5960   -4.2020    5.3000 C   0  0  2  0  0  0  0  0  0  0  0  0
  -23.4580   -4.8880    6.0490 C   0  0  0  0  0  0  0  0  0  0  0  0
  -23.0310   -5.9830    5.6800 O   0  0  0  0  0  0  0  0  0  0  0  0
  -25.8420   -5.0920    5.3060 C   0  0  0  0  0  0  0  0  0  0  0  0
  2  1  1  0
  3  2  1  0
  4  3  2  0
  2  5  1  1
  6  3  1  0
  7  6  1  0
  8  7  1  0
  9  8  2  0
  7 10  1  6
 11  8  1  0
 12 11  1  6
 13 12  1  0
 14 13  2  0
 15 12  1  0
 16 15  1  0
 15 17  1  1
 18 16  1  0
 19 13  1  0
 20 19  1  0
 21 20  1  0
 22 21  2  0
 20 23  1  6
 24 23  1  0
 25 24  1  0
 26 24  1  0
 27 21  1  0
 28 27  1  0
 29 28  1  0
 30 29  2  0
 28 31  1  6
 32 31  1  0
 33 32  1  0
 34 32  2  0
 35 33  2  0
 36 35  1  0
 36 34  1  0
 37 29  1  0
 38 37  1  0
 39 38  1  0
 40 39  2  0
 38 41  1  6
 42 39  1  0
 43 42  1  0
 44 43  1  0
 45 44  2  0
 43 46  1  6
 47 46  1  0
 48 47  1  0
 49 47  1  0
 50 44  1  0
 51 50  1  0
 52 51  1  0
 53 52  2  0
 51 54  1  6
 55 54  1  0
 56 55  1  0
 57 55  1  0
 58 52  1  0
 59 58  1  0
 60 59  1  0
 61 60  2  0
 59 62  1  6
 63 62  1  0
 64 63  1  0
 65 64  2  0
 66 64  1  0
 67 60  1  0
 68 67  1  0
 69 68  1  0
 70 69  2  0
 68 71  1  6
M  END
$$$$
8AV7
     RDKit          3D

 42 43  0  0  0  0  0  0  0  0999 V2000
   12.7250    7.7800   14.7440 N   0  0  0  0  0  0  0  0  0  0  0  0
   13.6340    8.9670   14.7750 C   0  0  2  0  0  0  0  0  0  0  0  0
   12.9890   10.1900   14.1250 C   0  0  0  0  0  0  0  0  0  0  0  0
   12.1360   10.0640   13.2490 O   0  0  0  0  0  0  0  0  0  0  0  0
   15.0050    8.6390   14.1380 C   0  0  0  0  0  0  0  0  0  0  0  0
   14.9330    8.0890   12.7360 C   0  0  0  0  0  0  0  0  0  0  0  0
   14.8200    8.9400   11.6360 C   0  0  0  0  0  0  0  0  0  0  0  0
   15.0140    6.7150   12.5060 C   0  0  0  0  0  0  0  0  0  0  0  0
   14.7600    8.4290   10.3440 C   0  0  0  0  0  0  0  0  0  0  0  0
   14.9530    6.2010   11.2140 C   0  0  0  0  0  0  0  0  0  0  0  0
   14.8300    7.0580   10.1330 C   0  0  0  0  0  0  0  0  0  0  0  0
   13.3530   11.4200   14.5430 N   0  0  0  0  0  0  0  0  0  0  0  0
   12.7800   12.6240   13.9440 C   0  0  2  0  0  0  0  0  0  0  0  0
   13.3790   12.9480   12.5680 C   0  0  0  0  0  0  0  0  0  0  0  0
   14.4490   12.4670   12.2210 O   0  0  0  0  0  0  0  0  0  0  0  0
   13.1380   13.7160   14.9570 C   0  0  0  0  0  0  0  0  0  0  0  0
   14.4510   13.2500   15.5330 C   0  0  0  0  0  0  0  0  0  0  0  0
   14.3340   11.7360   15.5960 C   0  0  0  0  0  0  0  0  0  0  0  0
   12.6680   13.7810   11.8170 N   0  0  0  0  0  0  0  0  0  0  0  0
   13.0330   14.1250   10.4720 C   0  0  2  0  0  0  0  0  0  0  0  0
   14.1360   15.1610   10.4790 C   0  0  0  0  0  0  0  0  0  0  0  0
   14.0860   16.1370   11.2100 O   0  0  0  0  0  0  0  0  0  0  0  0
   11.8390   14.6990    9.7500 C   0  0  0  0  0  0  0  0  0  0  0  0
   15.1240   14.9280    9.6130 N   0  0  0  0  0  0  0  0  0  0  0  0
   16.1920   15.8940    9.2610 C   0  0  1  0  0  0  0  0  0  0  0  0
   17.5050   15.6020   10.0060 C   0  0  1  0  0  0  0  0  0  0  0  0
   17.3660   15.7390   11.5070 C   0  0  0  0  0  0  0  0  0  0  0  0
   17.8600   14.2240    9.6780 O   0  0  0  0  0  0  0  0  0  0  0  0
   19.2960   13.5760    9.9950 P   0  0  0  0  0  0  0  0  0  0  0  0
   19.3320   12.3580    9.0860 O   0  0  0  0  0  0  0  0  0  0  0  0
   19.3120   13.2100   11.4770 O   0  0  0  0  0  0  0  0  0  0  0  0
   20.3250   14.6250    9.6790 O   0  0  0  0  0  0  0  0  0  0  0  0
   16.3860   15.8830    7.7480 C   0  0  0  0  0  0  0  0  0  0  0  0
   15.9590   14.9030    7.1000 O   0  0  0  0  0  0  0  0  0  0  0  0
   17.0020   16.9390    7.2210 N   0  0  0  0  0  0  0  0  0  0  0  0
   17.2400   17.0360    5.7960 C   0  0  2  0  0  0  0  0  0  0  0  0
   18.6560   17.4030    5.4900 C   0  0  0  0  0  0  0  0  0  0  0  0
   19.4290   17.8100    6.3820 O   0  0  0  0  0  0  0  0  0  0  0  0
   16.3150   18.0560    5.1030 C   0  0  0  0  0  0  0  0  0  0  0  0
   14.8870   17.6180    5.2340 C   0  0  0  0  0  0  0  0  0  0  0  0
   16.5090   19.4650    5.6370 C   0  0  0  0  0  0  0  0  0  0  0  0
   19.0000   17.2850    4.3100 O   0  0  0  0  0  0  0  0  0  0  0  0
  2  1  1  6
  3  2  1  0
  4  3  2  0
  5  2  1  0
  6  5  1  0
  7  6  2  0
  8  6  1  0
  9  7  1  0
 10  8  2  0
 11  9  2  0
 11 10  1  0
 12  3  1  0
 13 12  1  0
 13 14  1  6
 15 14  2  0
 16 13  1  0
 17 16  1  0
 18 17  1  0
 18 12  1  0
 19 14  1  0
 20 19  1  0
 21 20  1  0
 22 21  2  0
 20 23  1  1
 24 21  1  0
 25 24  1  6
 26 25  1  0
 26 27  1  1
 28 26  1  0
 29 28  1  0
 30 29  1  0
 31 29  1  0
 32 29  1  0
 33 25  1  0
 34 33  1  0
 35 33  1  0
 36 35  1  1
 37 36  1  0
 38 37  2  0
 39 36  1  0
 40 39  1  0
 41 39  1  0
 42 37  1  0
M  END
$$$$
6TL3
     RDKit          3D

 76 77  0  0  0  0  0  0  0  0999 V2000
   15.7700   10.3900   30.9620 N   0  0  0  0  0  0  0  0  0  0  0  0
   15.8330   11.1930   29.7380 C   0  0  2  0  0  0  0  0  0  0  0  0
   16.4620   10.3960   28.6020 C   0  0  0  0  0  0  0  0  0  0  0  0
   17.2570    9.4860   28.8410 O   0  0  0  0  0  0  0  0  0  0  0  0
   16.6240   12.4890   29.9710 C   0  0  0  0  0  0  0  0  0  0  0  0
   15.9020   13.4910   30.8360 C   0  0  0  0  0  0  0  0  0  0  0  0
   16.1380   13.5490   32.2030 C   0  0  0  0  0  0  0  0  0  0  0  0
   14.9760   14.3660   30.2840 C   0  0  0  0  0  0  0  0  0  0  0  0
   15.4710   14.4650   32.9960 C   0  0  0  0  0  0  0  0  0  0  0  0
   14.3090   15.2830   31.0770 C   0  0  0  0  0  0  0  0  0  0  0  0
   14.5600   15.3320   32.4300 C   0  0  0  0  0  0  0  0  0  0  0  0
   14.9320   11.4400   29.4780 H   0  0  0  0  0  0  0  0  0  0  0  0
   17.4610   12.2690   30.4080 H   0  0  0  0  0  0  0  0  0  0  0  0
   16.7970   12.9080   29.1140 H   0  0  0  0  0  0  0  0  0  0  0  0
   16.7500   12.9650   32.5900 H   0  0  0  0  0  0  0  0  0  0  0  0
   14.8010   14.3340   29.3710 H   0  0  0  0  0  0  0  0  0  0  0  0
   15.6370   14.4960   33.9100 H   0  0  0  0  0  0  0  0  0  0  0  0
   13.6920   15.8660   30.6960 H   0  0  0  0  0  0  0  0  0  0  0  0
   14.1140   15.9500   32.9630 H   0  0  0  0  0  0  0  0  0  0  0  0
   16.0880   10.7160   27.3670 N   0  0  0  0  0  0  0  0  0  0  0  0
   16.6970   10.0470   26.2110 C   0  0  2  0  0  0  0  0  0  0  0  0
   18.0650   10.6280   25.8730 C   0  0  0  0  0  0  0  0  0  0  0  0
   18.5050   11.6530   26.4080 O   0  0  0  0  0  0  0  0  0  0  0  0
   15.6940   10.3030   25.0840 C   0  0  0  0  0  0  0  0  0  0  0  0
   15.0930   11.6400   25.4450 C   0  0  0  0  0  0  0  0  0  0  0  0
   15.0510   11.6920   26.9680 C   0  0  0  0  0  0  0  0  0  0  0  0
   16.7800    9.0940   26.3720 H   0  0  0  0  0  0  0  0  0  0  0  0
   16.1520   10.3410   24.2290 H   0  0  0  0  0  0  0  0  0  0  0  0
   15.0200    9.6060   25.0690 H   0  0  0  0  0  0  0  0  0  0  0  0
   15.6490   12.3530   25.0940 H   0  0  0  0  0  0  0  0  0  0  0  0
   14.1980   11.7050   25.0760 H   0  0  0  0  0  0  0  0  0  0  0  0
   15.2700   12.5810   27.2900 H   0  0  0  0  0  0  0  0  0  0  0  0
   14.1790   11.4250   27.2990 H   0  0  0  0  0  0  0  0  0  0  0  0
   18.7310    9.9480   24.9470 N   0  0  0  0  0  0  0  0  0  0  0  0
   20.0860   10.3130   24.5760 C   0  0  2  0  0  0  0  0  0  0  0  0
   20.1480   11.4540   23.5520 C   0  0  0  0  0  0  0  0  0  0  0  0
   19.3590   11.5170   22.6230 O   0  0  0  0  0  0  0  0  0  0  0  0
   20.8170    9.0890   24.0350 C   0  0  0  0  0  0  0  0  0  0  0  0
   18.4180    9.2710   24.5190 H   0  0  0  0  0  0  0  0  0  0  0  0
   20.5330   10.6340   25.3740 H   0  0  0  0  0  0  0  0  0  0  0  0
   21.7090    9.3510   23.7590 H   0  0  0  0  0  0  0  0  0  0  0  0
   20.8700    8.4180   24.7340 H   0  0  0  0  0  0  0  0  0  0  0  0
   20.3260    8.7380   23.2760 H   0  0  0  0  0  0  0  0  0  0  0  0
   21.1040   12.3550   23.7490 N   0  0  0  0  0  0  0  0  0  0  0  0
   21.4160   13.4380   22.8130 C   0  0  1  0  0  0  0  0  0  0  0  0
   20.8170   14.7590   23.2840 C   0  0  1  0  0  0  0  0  0  0  0  0
   19.3060   14.6820   23.1380 C   0  0  2  0  0  0  0  0  0  0  0  0
   21.2090   14.9670   24.6450 O   0  0  0  0  0  0  0  0  0  0  0  0
   20.9070   16.4890   25.0790 P   0  0  0  0  0  0  0  0  0  0  0  0
   21.3600   17.5010   23.9260 O   0  0  0  0  0  0  0  0  0  0  0  0
   21.7530   16.7920   26.4020 O   0  0  0  0  0  0  0  0  0  0  0  0
   19.4610   16.6520   25.3470 O   0  0  0  0  0  0  0  0  0  0  0  0
   22.9490   13.5260   22.7140 C   0  0  0  0  0  0  0  0  0  0  0  0
   23.6680   13.0420   23.5960 O   0  0  0  0  0  0  0  0  0  0  0  0
   21.0260   13.2700   21.9300 H   0  0  0  0  0  0  0  0  0  0  0  0
   21.1750   15.5990   22.6890 H   0  0  0  0  0  0  0  0  0  0  0  0
   19.0560   14.2490   22.1690 H   0  0  0  0  0  0  0  0  0  0  0  0
   18.8820   15.6840   23.2080 H   0  0  0  0  0  0  0  0  0  0  0  0
   18.8950   14.0580   23.9310 H   0  0  0  0  0  0  0  0  0  0  0  0
   23.4460   14.1520   21.6550 N   0  0  0  0  0  0  0  0  0  0  0  0
   24.8830   14.3710   21.5000 C   0  0  2  0  0  0  0  0  0  0  0  0
   25.1520   15.7730   20.9640 C   0  0  0  0  0  0  0  0  0  0  0  0
   24.2980   16.4050   20.3430 O   0  0  0  0  0  0  0  0  0  0  0  0
   25.5090   13.3130   20.5720 C   0  0  0  0  0  0  0  0  0  0  0  0
   25.4300   11.9460   21.2140 C   0  0  0  0  0  0  0  0  0  0  0  0
   24.8040   13.3210   19.2250 C   0  0  0  0  0  0  0  0  0  0  0  0
   26.2440   16.3040   21.1200 O   0  0  0  0  0  0  0  0  0  0  0  0
   22.9720   14.4620   21.0070 H   0  0  0  0  0  0  0  0  0  0  0  0
   25.3020   14.2920   22.3710 H   0  0  0  0  0  0  0  0  0  0  0  0
   26.4440   13.5220   20.4240 H   0  0  0  0  0  0  0  0  0  0  0  0
   25.5060   12.0450   22.1760 H   0  0  0  0  0  0  0  0  0  0  0  0
   24.5780   11.5410   20.9900 H   0  0  0  0  0  0  0  0  0  0  0  0
   26.1560   11.3970   20.8790 H   0  0  0  0  0  0  0  0  0  0  0  0
   24.0730   13.9580   19.2550 H   0  0  0  0  0  0  0  0  0  0  0  0
   25.4380   13.5780   18.5370 H   0  0  0  0  0  0  0  0  0  0  0  0
   24.4610   12.4320   19.0420 H   0  0  0  0  0  0  0  0  0  0  0  0
  2  1  1  0
  3  2  1  0
  4  3  2  0
  5  2  1  0
  6  5  1  0
  7  6  2  0
  8  6  1  0
  9  7  1  0
 10  8  2  0
 11 10  1  0
 11  9  2  0
  2 12  1  6
 13  5  1  0
 14  5  1  0
 15  7  1  0
 16  8  1  0
 17  9  1  0
 18 10  1  0
 19 11  1  0
 20  3  1  0
 21 20  1  0
 22 21  1  0
 23 22  2  0
 24 21  1  0
 25 24  1  0
 26 20  1  0
 26 25  1  0
 21 27  1  1
 28 24  1  0
 29 24  1  0
 30 25  1  0
 31 25  1  0
 32 26  1  0
 33 26  1  0
 34 22  1  0
 35 34  1  0
 36 35  1  0
 37 36  2  0
 38 35  1  0
 39 34  1  0
 35 40  1  1
 41 38  1  0
 42 38  1  0
 43 38  1  0
 44 36  1  0
 45 44  1  0
 46 45  1  0
 47 46  1  0
 48 46  1  0
 49 48  1  0
 50 49  1  0
 51 49  1  0
 52 49  1  0
 53 45  1  0
 54 53  1  0
 45 55  1  6
 46 56  1  6
 47 57  1  6
 58 47  1  0
 59 47  1  0
 60 53  1  0
 61 60  1  0
 62 61  1  0
 63 62  2  0
 64 61  1  0
 65 64  1  0
 66 64  1  0
 67 62  1  0
 68 60  1  0
 61 69  1  1
 70 64  1  0
 71 65  1  0
 72 65  1  0
 73 65  1  0
 74 66  1  0
 75 66  1  0
 76 66  1  0
M  END
$$$$
9BU1
     RDKit          3D

 36 42  0  0  0  0  0  0  0  0999 V2000
   -2.0040  -31.0210   27.5510 N   0  0  0  0  0  0  0  0  0  0  0  0
   -1.7610  -26.7730   27.1190 C   0  0  0  0  0  0  0  0  0  0  0  0
   -1.8320  -28.3030   27.2180 C   0  0  0  0  0  0  0  0  0  0  0  0
   -2.9280  -28.9400   26.8220 C   0  0  0  0  0  0  0  0  0  0  0  0
   -0.6120  -29.0350   27.7850 C   0  0  0  0  0  0  0  0  0  0  0  0
   -0.6560  -30.4940   27.3390 C   0  0  1  0  0  0  0  0  0  0  0  0
   -2.3190  -32.1240   28.4770 C   0  0  1  0  0  0  0  0  0  0  0  0
    0.2160  -32.4850   31.3590 C   0  0  0  0  0  0  0  0  0  0  0  0
    0.1450  -34.6320   30.1280 C   0  0  0  0  0  0  0  0  0  0  0  0
   -3.2490  -30.9680   25.4140 C   0  0  0  0  0  0  0  0  0  0  0  0
   -4.0930  -31.9400   25.1030 C   0  0  0  0  0  0  0  0  0  0  0  0
   -4.2050  -32.4100   23.6400 C   0  0  0  0  0  0  0  0  0  0  0  0
   -3.4540  -31.8370   22.7070 C   0  0  0  0  0  0  0  0  0  0  0  0
   -2.3970  -30.3100   24.3350 C   0  0  0  0  0  0  0  0  0  0  0  0
   -5.3300  -32.2770   19.7040 C   0  0  1  0  0  0  0  0  0  0  0  0
   -4.4280  -31.7890   18.7270 C   0  0  0  0  0  0  0  0  0  0  0  0
   -4.1190  -28.1480   26.2750 C   0  0  0  0  0  0  0  0  0  0  0  0
   -1.2460  -32.7690   29.3900 C   0  0  1  0  0  0  0  0  0  0  0  0
   -0.8220  -31.9860   30.3580 C   0  0  0  0  0  0  0  0  0  0  0  0
    0.6570  -33.7170   31.2420 C   0  0  0  0  0  0  0  0  0  0  0  0
   -0.7480  -34.2050   29.2620 C   0  0  0  0  0  0  0  0  0  0  0  0
    0.7900  -31.0290   27.5950 C   0  0  0  0  0  0  0  0  0  0  0  0
    0.3450  -30.8280   26.1970 C   0  0  0  0  0  0  0  0  0  0  0  0
   -4.0530  -26.8370   26.1880 C   0  0  0  0  0  0  0  0  0  0  0  0
   -2.4860  -30.7140   23.0870 C   0  0  0  0  0  0  0  0  0  0  0  0
   -4.6090  -33.0030   20.9720 C   0  0  0  0  0  0  0  0  0  0  0  0
   -6.0540  -33.1630   18.8980 C   0  0  0  0  0  0  0  0  0  0  0  0
   -5.5240  -32.4320   17.0090 C   0  0  0  0  0  0  0  0  0  0  0  0
   -2.7940  -26.0960   26.6410 C   0  0  0  0  0  0  0  0  0  0  0  0
   -5.3670  -31.2000   16.0770 C   0  0  0  0  0  0  0  0  0  0  0  0
   -6.2050  -31.4050   14.7990 C   0  0  0  0  0  0  0  0  0  0  0  0
   -3.1170  -30.4560   26.8520 C   0  0  1  0  0  0  0  0  0  0  0  0
   -5.6670  -32.0870   18.0900 N   0  0  2  0  0  0  0  0  0  0  0  0
   -2.7420  -24.7040   26.5460 O   0  0  0  0  0  0  0  0  0  0  0  0
   -3.5010  -32.2280   21.3490 O   0  0  0  0  0  0  0  0  0  0  0  0
   -3.4330  -32.4620   28.5760 O   0  0  0  0  0  0  0  0  0  0  0  0
  3  2  1  0
  4  3  1  0
  5  3  1  0
  6  5  1  1
  6  1  1  0
  7  1  1  0
 11 10  1  0
 12 11  1  0
 13 12  1  0
 14 10  1  0
 16 15  1  0
 17  4  1  0
 18  7  1  0
 18 19  1  1
 19  8  1  0
 20  9  1  0
 20  8  1  0
 21 18  1  0
 21  9  1  0
 22  6  1  0
 23 22  1  0
 23  6  1  0
 24 17  1  0
 25 14  1  0
 25 13  1  0
 15 26  1  1
 27 15  1  0
 29 24  1  0
 29  2  1  0
 30 28  1  0
 31 30  1  0
 32 10  1  6
 32  4  1  0
 32  1  1  0
 33 27  1  0
 33 28  1  1
 33 16  1  0
 33 15  1  0
 34 29  1  0
 35 26  1  0
 35 13  1  0
  7 36  1  1
M  CHG  1  33   1
M  END
$$$$
7RRZ
     RDKit          3D

 47 52  0  0  0  0  0  0  0  0999 V2000
   -8.7770  -13.6650  -20.6470 C   0  0  0  0  0  0  0  0  0  0  0  0
   -8.4190  -11.4160  -20.7070 C   0  0  0  0  0  0  0  0  0  0  0  0
   -6.4940  -10.6840  -21.9800 C   0  0  0  0  0  0  0  0  0  0  0  0
   -6.8250   -9.3610  -21.6920 C   0  0  0  0  0  0  0  0  0  0  0  0
    2.5600  -10.6410  -22.8010 C   0  0  0  0  0  0  0  0  0  0  0  0
    1.8210   -9.6800  -23.4710 C   0  0  0  0  0  0  0  0  0  0  0  0
    0.5030   -9.4370  -23.0920 C   0  0  0  0  0  0  0  0  0  0  0  0
   -1.5670  -11.1810  -17.0780 C   0  0  0  0  0  0  0  0  0  0  0  0
    0.1160   -9.5590  -17.6520 C   0  0  0  0  0  0  0  0  0  0  0  0
   -1.5200  -10.2120  -19.3060 C   0  0  0  0  0  0  0  0  0  0  0  0
   -5.7070   -8.7680  -24.5880 C   0  0  1  0  0  0  0  0  0  0  0  0
    2.4020  -10.2710  -11.2380 C   0  0  0  0  0  0  0  0  0  0  0  0
    3.0520  -10.6340   -9.9050 C   0  0  0  0  0  0  0  0  0  0  0  0
    2.9340  -12.1160   -9.5890 C   0  0  0  0  0  0  0  0  0  0  0  0
    1.5080  -12.6150   -9.8230 C   0  0  0  0  0  0  0  0  0  0  0  0
    0.9940  -12.2350  -11.2140 C   0  0  0  0  0  0  0  0  0  0  0  0
    1.3960  -11.0660  -13.2330 C   0  0  0  0  0  0  0  0  0  0  0  0
   -0.1250  -11.0320  -13.1330 C   0  0  0  0  0  0  0  0  0  0  0  0
   -0.7550  -11.1000  -14.5220 C   0  0  0  0  0  0  0  0  0  0  0  0
   -7.9530   -9.0600  -20.9210 C   0  0  0  0  0  0  0  0  0  0  0  0
   -8.7460  -10.0880  -20.4250 C   0  0  0  0  0  0  0  0  0  0  0  0
   -7.2940  -11.7120  -21.4840 C   0  0  0  0  0  0  0  0  0  0  0  0
   -6.3080   -7.8930  -23.4940 C   0  0  0  0  0  0  0  0  0  0  0  0
    0.6760  -11.1040  -21.3620 C   0  0  0  0  0  0  0  0  0  0  0  0
    1.9950  -11.3480  -21.7450 C   0  0  0  0  0  0  0  0  0  0  0  0
   -2.0980  -11.0750  -18.3680 C   0  0  0  0  0  0  0  0  0  0  0  0
   -0.4540  -10.4210  -16.7130 C   0  0  0  0  0  0  0  0  0  0  0  0
   -0.4130   -9.4530  -18.9370 C   0  0  0  0  0  0  0  0  0  0  0  0
   -0.0730  -10.1370  -22.0290 C   0  0  0  0  0  0  0  0  0  0  0  0
   -2.3180   -9.2050  -22.6270 C   0  0  2  0  0  0  0  0  0  0  0  0
   -1.3490   -9.8780  -21.7020 C   0  0  0  0  0  0  0  0  0  0  0  0
   -2.6360   -7.8160  -22.0700 C   0  0  0  0  0  0  0  0  0  0  0  0
   -2.0300  -10.1140  -20.5520 C   0  0  2  0  0  0  0  0  0  0  0  0
   -3.4480   -9.7040  -20.8520 C   0  0  1  0  0  0  0  0  0  0  0  0
   -3.4970   -8.1740  -20.8390 C   0  0  2  0  0  0  0  0  0  0  0  0
   -4.3260   -8.8390  -24.4500 F   0  0  0  0  0  0  0  0  0  0  0  0
   -6.2520  -10.0460  -24.5830 F   0  0  0  0  0  0  0  0  0  0  0  0
   -6.0160   -8.2020  -25.8140 F   0  0  0  0  0  0  0  0  0  0  0  0
    1.9820  -11.4590  -11.9700 N   0  0  0  0  0  0  0  0  0  0  0  0
   -6.1470   -8.3860  -22.1140 N   0  0  0  0  0  0  0  0  0  0  0  0
   -5.7830   -7.5340  -19.7170 O   0  0  0  0  0  0  0  0  0  0  0  0
   -5.0100   -6.2030  -21.5900 O   0  0  0  0  0  0  0  0  0  0  0  0
   -9.2110  -12.4060  -20.2170 O   0  0  0  0  0  0  0  0  0  0  0  0
    0.0940  -10.5040  -15.4650 O   0  0  0  0  0  0  0  0  0  0  0  0
    3.8350  -10.8810  -23.1660 O   0  0  0  0  0  0  0  0  0  0  0  0
   -3.5410   -9.9080  -22.2870 O   0  0  0  0  0  0  0  0  0  0  0  0
   -5.1540   -7.5310  -21.0280 S   0  0  1  0  0  0  0  0  0  0  0  0
  4  3  1  0
  6  5  1  0
  7  6  1  0
 13 12  1  0
 14 13  1  0
 15 14  1  0
 16 15  1  0
 18 17  1  0
 19 18  1  0
 20  4  1  0
 21  2  1  0
 21 20  1  0
 22  2  1  0
 22  3  1  0
 23 11  1  0
 25 24  1  0
 25  5  1  0
 26  8  1  0
 26 10  1  0
 27  8  1  0
 27  9  1  0
 28 10  1  0
 28  9  1  0
 29 24  1  0
 29  7  1  0
 31 30  1  0
 31 29  1  0
 30 32  1  1
 33 31  1  0
 33 10  1  1
 34 33  1  0
 35 32  1  6
 35 34  1  0
 11 36  1  1
 37 11  1  0
 38 11  1  0
 39 17  1  0
 39 16  1  0
 39 12  1  0
 40 23  1  0
 40  4  1  0
 43  2  1  0
 43  1  1  0
 44 19  1  0
 44 27  1  0
 45  5  1  0
 46 30  1  0
 34 46  1  6
 47 40  1  0
 47 41  1  1
 47 42  1  0
 47 35  1  0
M  END
$$$$
5DXQ
     RDKit          3D

 76 75  0  0  0  0  0  0  0  0999 V2000
    6.8560  -16.5110   34.6410 N   0  0  0  0  0  0  0  0  0  0  0  0
    6.8060  -15.1150   34.2220 C   0  0  2  0  0  0  0  0  0  0  0  0
    5.8430  -14.3100   35.0900 C   0  0  0  0  0  0  0  0  0  0  0  0
    4.6790  -14.6770   35.2470 O   0  0  0  0  0  0  0  0  0  0  0  0
    6.3970  -15.0110   32.7510 C   0  0  0  0  0  0  0  0  0  0  0  0
    6.3400  -13.2110   35.6510 N   0  0  0  0  0  0  0  0  0  0  0  0
    5.5430  -12.3540   36.5220 C   0  0  2  0  0  0  0  0  0  0  0  0
    4.3450  -11.7680   35.7840 C   0  0  0  0  0  0  0  0  0  0  0  0
    3.2300  -11.7460   36.3070 O   0  0  0  0  0  0  0  0  0  0  0  0
    6.3870  -11.2030   37.0990 C   0  0  2  0  0  0  0  0  0  0  0  0
    7.6040  -11.7560   37.8410 C   0  0  0  0  0  0  0  0  0  0  0  0
    5.5470  -10.3260   38.0170 C   0  0  0  0  0  0  0  0  0  0  0  0
    8.5220  -10.6860   38.3820 C   0  0  0  0  0  0  0  0  0  0  0  0
    4.5850  -11.2980   34.5650 N   0  0  0  0  0  0  0  0  0  0  0  0
    3.5300  -10.7310   33.7360 C   0  0  2  0  0  0  0  0  0  0  0  0
    2.4440  -11.7640   33.4460 C   0  0  0  0  0  0  0  0  0  0  0  0
    1.2670  -11.4250   33.3220 O   0  0  0  0  0  0  0  0  0  0  0  0
    4.1140  -10.1890   32.4290 C   0  0  0  0  0  0  0  0  0  0  0  0
    3.1280   -9.6040   31.4170 C   0  0  0  0  0  0  0  0  0  0  0  0
    2.2930   -8.5040   32.0480 C   0  0  0  0  0  0  0  0  0  0  0  0
    3.8680   -9.0820   30.2000 C   0  0  0  0  0  0  0  0  0  0  0  0
    2.8470  -13.0270   33.3460 N   0  0  0  0  0  0  0  0  0  0  0  0
    1.9030  -14.1130   33.1130 C   0  0  2  0  0  0  0  0  0  0  0  0
    1.0020  -14.3220   34.3270 C   0  0  0  0  0  0  0  0  0  0  0  0
   -0.1960  -14.5710   34.1880 O   0  0  0  0  0  0  0  0  0  0  0  0
    2.6460  -15.4070   32.7770 C   0  0  0  0  0  0  0  0  0  0  0  0
    1.5840  -14.2140   35.5180 N   0  0  0  0  0  0  0  0  0  0  0  0
    0.8390  -14.4110   36.7560 C   0  0  2  0  0  0  0  0  0  0  0  0
   -0.1300  -13.2640   37.0200 C   0  0  0  0  0  0  0  0  0  0  0  0
   -1.3120  -13.4870   37.2720 O   0  0  0  0  0  0  0  0  0  0  0  0
    1.7920  -14.5570   37.9440 C   0  0  0  0  0  0  0  0  0  0  0  0
    1.0890  -14.8920   39.2540 C   0  0  0  0  0  0  0  0  0  0  0  0
    1.7850  -14.2740   40.4600 C   0  0  0  0  0  0  0  0  0  0  0  0
    3.1800  -14.6870   40.5780 N   0  0  0  0  0  0  0  0  0  0  0  0
    4.2150  -13.9180   40.2560 C   0  0  0  0  0  0  0  0  0  0  0  0
    4.0120  -12.6920   39.7960 N   0  0  0  0  0  0  0  0  0  0  0  0
    5.4520  -14.3740   40.3940 N   0  0  0  0  0  0  0  0  0  0  0  0
    0.3800  -12.0370   36.9620 N   0  0  0  0  0  0  0  0  0  0  0  0
   -0.4160  -10.8520   37.2690 C   0  0  2  0  0  0  0  0  0  0  0  0
   -1.5970  -10.6860   36.3170 C   0  0  0  0  0  0  0  0  0  0  0  0
   -2.5970  -10.0570   36.6610 O   0  0  0  0  0  0  0  0  0  0  0  0
    0.4620   -9.6000   37.2310 C   0  0  0  0  0  0  0  0  0  0  0  0
    1.6380   -9.5680   38.2110 C   0  0  0  0  0  0  0  0  0  0  0  0
    2.4180   -8.2710   38.0760 C   0  0  0  0  0  0  0  0  0  0  0  0
    1.1560   -9.7570   39.6410 C   0  0  0  0  0  0  0  0  0  0  0  0
   -1.4770  -11.2550   35.1230 N   0  0  0  0  0  0  0  0  0  0  0  0
   -2.5420  -11.1810   34.1310 C   0  0  2  0  0  0  0  0  0  0  0  0
   -3.6630  -12.1760   34.4160 C   0  0  0  0  0  0  0  0  0  0  0  0
   -4.8420  -11.8420   34.3010 O   0  0  0  0  0  0  0  0  0  0  0  0
   -1.9820  -11.4260   32.7280 C   0  0  0  0  0  0  0  0  0  0  0  0
   -1.4670  -10.2100   31.9580 C   0  0  0  0  0  0  0  0  0  0  0  0
   -0.7070  -10.6470   30.7180 C   0  0  0  0  0  0  0  0  0  0  0  0
   -2.6210   -9.2970   31.5760 C   0  0  0  0  0  0  0  0  0  0  0  0
   -3.2920  -13.3950   34.7930 N   0  0  0  0  0  0  0  0  0  0  0  0
   -4.2590  -14.4820   34.9170 C   0  0  2  0  0  0  0  0  0  0  0  0
   -5.1050  -14.4020   36.1890 C   0  0  0  0  0  0  0  0  0  0  0  0
   -6.2470  -14.8600   36.2020 O   0  0  0  0  0  0  0  0  0  0  0  0
   -3.5420  -15.8340   34.8510 C   0  0  0  0  0  0  0  0  0  0  0  0
   -2.5250  -16.0650   35.9520 C   0  0  0  0  0  0  0  0  0  0  0  0
   -1.6150  -17.2420   35.6640 C   0  0  0  0  0  0  0  0  0  0  0  0
   -1.5710  -17.7460   34.5420 O   0  0  0  0  0  0  0  0  0  0  0  0
   -0.8830  -17.6870   36.6780 N   0  0  0  0  0  0  0  0  0  0  0  0
   -4.5550  -13.8250   37.2530 N   0  0  0  0  0  0  0  0  0  0  0  0
   -5.2980  -13.7070   38.5050 C   0  0  2  0  0  0  0  0  0  0  0  0
   -6.2780  -12.5300   38.4550 C   0  0  0  0  0  0  0  0  0  0  0  0
   -5.9980  -11.5110   37.8220 O   0  0  0  0  0  0  0  0  0  0  0  0
   -4.3380  -13.5720   39.6990 C   0  0  0  0  0  0  0  0  0  0  0  0
   -3.2520  -12.5330   39.4790 C   0  0  0  0  0  0  0  0  0  0  0  0
   -3.5440  -11.4490   38.9340 O   0  0  0  0  0  0  0  0  0  0  0  0
   -2.0950  -12.8010   39.8650 O   0  0  0  0  0  0  0  0  0  0  0  0
   -7.4360  -12.6770   39.0960 N   0  0  0  0  0  0  0  0  0  0  0  0
   -7.8070  -13.9040   39.7960 C   0  0  2  0  0  0  0  0  0  0  0  0
   -8.7710  -14.7470   38.9670 C   0  0  0  0  0  0  0  0  0  0  0  0
   -8.4650  -15.8850   38.6080 O   0  0  0  0  0  0  0  0  0  0  0  0
   -8.4310  -13.5750   41.1540 C   0  0  0  0  0  0  0  0  0  0  0  0
   -9.5590  -12.7310   41.0060 O   0  0  0  0  0  0  0  0  0  0  0  0
  2  1  1  0
  3  2  1  0
  4  3  2  0
  2  5  1  6
  6  3  1  0
  7  6  1  6
  8  7  1  0
  9  8  2  0
 10  7  1  0
 11 10  1  0
 10 12  1  1
 13 11  1  0
 14  8  1  0
 15 14  1  0
 16 15  1  0
 17 16  2  0
 15 18  1  6
 19 18  1  0
 20 19  1  0
 21 19  1  0
 22 16  1  0
 23 22  1  0
 24 23  1  0
 25 24  2  0
 23 26  1  1
 27 24  1  0
 28 27  1  0
 29 28  1  0
 30 29  2  0
 28 31  1  1
 32 31  1  0
 33 32  1  0
 34 33  1  0
 35 34  1  0
 36 35  1  0
 37 35  2  0
 38 29  1  0
 39 38  1  0
 40 39  1  0
 41 40  2  0
 39 42  1  6
 43 42  1  0
 44 43  1  0
 45 43  1  0
 46 40  1  0
 47 46  1  0
 48 47  1  0
 49 48  2  0
 47 50  1  6
 51 50  1  0
 52 51  1  0
 53 51  1  0
 54 48  1  0
 55 54  1  0
 56 55  1  0
 57 56  2  0
 55 58  1  1
 59 58  1  0
 60 59  1  0
 61 60  2  0
 62 60  1  0
 63 56  1  0
 64 63  1  0
 65 64  1  0
 66 65  2  0
 64 67  1  1
 68 67  1  0
 69 68  2  0
 70 68  1  0
 71 65  1  0
 72 71  1  0
 73 72  1  0
 74 73  2  0
 72 75  1  1
 76 75  1  0
M  END
$$$$
6ZOQ
     RDKit          3D

 36 41  0  0  0  0  0  0  0  0999 V2000
   18.2150  -13.5960   11.0740 C   0  0  0  0  0  0  0  0  0  0  0  0
   17.8380  -14.8900   11.3790 C   0  0  0  0  0  0  0  0  0  0  0  0
   17.6340  -15.2520   12.7060 C   0  0  0  0  0  0  0  0  0  0  0  0
   16.9290  -20.8450   16.2010 C   0  0  0  0  0  0  0  0  0  0  0  0
   16.3670  -21.5110   17.4610 C   0  0  0  0  0  0  0  0  0  0  0  0
   17.9390  -17.2570   15.3780 C   0  0  0  0  0  0  0  0  0  0  0  0
   17.8090  -14.3090   13.7080 C   0  0  0  0  0  0  0  0  0  0  0  0
   18.1840  -13.0190   13.3880 C   0  0  0  0  0  0  0  0  0  0  0  0
   18.4020  -12.6380   12.0690 C   0  0  0  0  0  0  0  0  0  0  0  0
   18.8060  -11.2090   11.7190 C   0  0  2  0  0  0  0  0  0  0  0  0
   16.5420  -10.5860   11.0700 C   0  0  0  0  0  0  0  0  0  0  0  0
   15.1420  -10.7520   11.6290 C   0  0  2  0  0  0  0  0  0  0  0  0
   14.1520  -11.6470   11.0030 C   0  0  0  0  0  0  0  0  0  0  0  0
   18.6250   -8.3430   10.7690 C   0  0  0  0  0  0  0  0  0  0  0  0
   18.9240   -8.6680   13.2520 C   0  0  0  0  0  0  0  0  0  0  0  0
   20.0500   -9.6710   13.3100 C   0  0  0  0  0  0  0  0  0  0  0  0
   20.0010  -10.8750   12.5870 C   0  0  0  0  0  0  0  0  0  0  0  0
   22.1790  -11.5100   13.4380 C   0  0  0  0  0  0  0  0  0  0  0  0
   21.1760   -9.3820   14.1060 C   0  0  0  0  0  0  0  0  0  0  0  0
   14.6530   -9.6080   12.2570 F   0  0  0  0  0  0  0  0  0  0  0  0
   14.8130  -12.0260   12.2930 C   0  0  0  0  0  0  0  0  0  0  0  0
   17.6680  -10.3010   11.9620 N   0  0  0  0  0  0  0  0  0  0  0  0
   18.0180   -8.8690   12.0540 C   0  0  2  0  0  0  0  0  0  0  0  0
   21.6050   -8.3340   14.9530 C   0  0  0  0  0  0  0  0  0  0  0  0
   22.7910   -8.5880   15.4730 N   0  0  0  0  0  0  0  0  0  0  0  0
   23.1670   -9.8030   14.9780 N   0  0  0  0  0  0  0  0  0  0  0  0
   22.2240  -10.3210   14.1500 C   0  0  0  0  0  0  0  0  0  0  0  0
   21.0650  -11.7690   12.6610 C   0  0  0  0  0  0  0  0  0  0  0  0
   18.4330  -13.1650    9.7970 O   0  0  0  0  0  0  0  0  0  0  0  0
   18.2410  -14.1030    8.7470 C   0  0  0  0  0  0  0  0  0  0  0  0
   17.2540  -16.5490   13.0200 N   0  0  0  0  0  0  0  0  0  0  0  0
   18.0590  -17.4250   13.8570 C   0  0  2  0  0  0  0  0  0  0  0  0
   17.1060  -18.4840   15.4220 N   0  0  0  0  0  0  0  0  0  0  0  0
   17.5460  -18.8560   14.0550 C   0  0  0  0  0  0  0  0  0  0  0  0
   17.4570  -19.4490   16.4680 C   0  0  0  0  0  0  0  0  0  0  0  0
   16.9340  -20.9330   18.5840 F   0  0  0  0  0  0  0  0  0  0  0  0
  2  1  1  0
  3  2  1  0
  5  4  1  0
  7  3  1  0
  8  7  1  0
  9  8  1  0
  9  1  1  0
 10  9  1  1
 12 11  1  0
 13 12  1  0
 16 15  1  0
 17 10  1  0
 17 16  1  0
 19 16  1  0
 12 20  1  1
 21 13  1  0
 21 12  1  0
 22 10  1  0
 22 11  1  0
 23 14  1  6
 23 22  1  0
 23 15  1  0
 24 19  1  0
 25 24  1  0
 26 25  1  0
 27 19  1  0
 27 18  1  0
 27 26  1  0
 28 17  1  0
 28 18  1  0
 29  1  1  0
 30 29  1  0
 31  3  1  0
 32 31  1  6
 32  6  1  0
 33  6  1  0
 34 33  1  0
 34 32  1  0
 35 33  1  0
 35  4  1  0
 36  5  1  0
M  END
$$$$
6C42
     RDKit          3D

 18 19  0  0  0  0  0  0  0  0999 V2000
   35.5550  -58.6430    6.1120 N   0  0  0  0  0  0  0  0  0  0  0  0
   34.4180  -59.3340    5.5040 C   0  0  2  0  0  0  0  0  0  0  0  0
   33.0760  -58.7420    5.9900 C   0  0  0  0  0  0  0  0  0  0  0  0
   32.4270  -59.2910    6.8290 O   0  0  0  0  0  0  0  0  0  0  0  0
   34.5990  -60.7710    5.9630 C   0  0  0  0  0  0  0  0  0  0  0  0
   35.9290  -60.8390    6.6760 C   0  0  0  0  0  0  0  0  0  0  0  0
   36.6470  -59.5530    6.4630 C   0  0  0  0  0  0  0  0  0  0  0  0
   32.6970  -57.6070    5.4420 N   0  0  0  0  0  0  0  0  0  0  0  0
   31.6220  -56.7930    5.9740 C   0  0  2  0  0  0  0  0  0  0  0  0
   30.2670  -57.4500    5.7980 C   0  0  0  0  0  0  0  0  0  0  0  0
   29.3300  -56.8240    5.3560 O   0  0  0  0  0  0  0  0  0  0  0  0
   31.6640  -55.4310    5.3150 C   0  0  0  0  0  0  0  0  0  0  0  0
   30.9300  -54.3560    6.0460 C   0  0  0  0  0  0  0  0  0  0  0  0
   31.1800  -54.0980    7.3770 C   0  0  0  0  0  0  0  0  0  0  0  0
   30.0070  -53.5810    5.3920 C   0  0  0  0  0  0  0  0  0  0  0  0
   30.5070  -53.0980    8.0420 C   0  0  0  0  0  0  0  0  0  0  0  0
   29.3440  -52.5860    6.0350 C   0  0  0  0  0  0  0  0  0  0  0  0
   29.5820  -52.3420    7.3630 C   0  0  0  0  0  0  0  0  0  0  0  0
  2  1  1  0
  2  3  1  1
  4  3  2  0
  5  2  1  0
  6  5  1  0
  7  6  1  0
  7  1  1  0
  8  3  1  0
  9  8  1  0
 10  9  1  0
 11 10  2  0
  9 12  1  6
 13 12  1  0
 14 13  2  0
 15 13  1  0
 16 14  1  0
 17 15  2  0
 18 17  1  0
 18 16  2  0
M  END
$$$$
2QAB
     RDKit          3D

 79 79  0  0  0  0  0  0  0  0999 V2000
   29.1180   17.8210    5.3480 N   0  0  0  0  0  0  0  0  0  0  0  0
   28.1910   16.6620    5.4880 C   0  0  2  0  0  0  0  0  0  0  0  0
   27.7190   16.1000    4.1430 C   0  0  0  0  0  0  0  0  0  0  0  0
   27.0690   16.7790    3.3410 O   0  0  0  0  0  0  0  0  0  0  0  0
   27.0000   17.0200    6.3700 C   0  0  0  0  0  0  0  0  0  0  0  0
   25.8500   16.0200    6.2900 C   0  0  0  0  0  0  0  0  0  0  0  0
   25.3920   15.6110    7.6890 C   0  0  0  0  0  0  0  0  0  0  0  0
   25.3320   16.8040    8.6300 C   0  0  0  0  0  0  0  0  0  0  0  0
   24.8970   16.3890    9.9870 N   0  0  0  0  0  0  0  0  0  0  0  0
   28.0400   14.8340    3.9250 N   0  0  0  0  0  0  0  0  0  0  0  0
   27.8130   14.1820    2.6530 C   0  0  2  0  0  0  0  0  0  0  0  0
   26.3340   14.0280    2.3550 C   0  0  0  0  0  0  0  0  0  0  0  0
   25.8930   14.2750    1.2270 O   0  0  0  0  0  0  0  0  0  0  0  0
   28.4760   12.7950    2.6400 C   0  0  2  0  0  0  0  0  0  0  0  0
   29.9980   12.9490    2.6980 C   0  0  0  0  0  0  0  0  0  0  0  0
   28.0480   12.0120    1.4080 C   0  0  0  0  0  0  0  0  0  0  0  0
   30.7210   11.6560    2.9180 C   0  0  0  0  0  0  0  0  0  0  0  0
   25.5740   13.5900    3.3620 N   0  0  0  0  0  0  0  0  0  0  0  0
   24.1310   13.4230    3.2210 C   0  0  2  0  0  0  0  0  0  0  0  0
   23.4720   14.7230    2.7720 C   0  0  0  0  0  0  0  0  0  0  0  0
   22.6150   14.7320    1.8830 O   0  0  0  0  0  0  0  0  0  0  0  0
   23.5190   12.9690    4.5370 C   0  0  0  0  0  0  0  0  0  0  0  0
   22.0140   12.7280    4.5170 C   0  0  0  0  0  0  0  0  0  0  0  0
   21.6530   11.7730    3.3890 C   0  0  0  0  0  0  0  0  0  0  0  0
   21.5420   12.1880    5.8640 C   0  0  0  0  0  0  0  0  0  0  0  0
   23.8700   15.8180    3.4110 N   0  0  0  0  0  0  0  0  0  0  0  0
   23.3850   17.1460    3.0670 C   0  0  2  0  0  0  0  0  0  0  0  0
   23.6210   17.4850    1.5880 C   0  0  0  0  0  0  0  0  0  0  0  0
   22.7120   17.9730    0.9060 O   0  0  0  0  0  0  0  0  0  0  0  0
   24.0540   18.1780    3.9710 C   0  0  0  0  0  0  0  0  0  0  0  0
   23.5010   19.5570    3.8320 C   0  0  0  0  0  0  0  0  0  0  0  0
   22.3930   19.9870    4.5290 N   0  0  0  0  0  0  0  0  0  0  0  0
   23.9150   20.6130    3.0940 C   0  0  0  0  0  0  0  0  0  0  0  0
   22.1370   21.2420    4.2140 C   0  0  0  0  0  0  0  0  0  0  0  0
   23.0480   21.6480    3.3480 N   0  0  0  0  0  0  0  0  0  0  0  0
   24.8320   17.2320    1.0910 N   0  0  0  0  0  0  0  0  0  0  0  0
   25.1440   17.5450   -0.3030 C   0  0  2  0  0  0  0  0  0  0  0  0
   24.3270   16.6860   -1.2700 C   0  0  0  0  0  0  0  0  0  0  0  0
   23.8090   17.1770   -2.2800 O   0  0  0  0  0  0  0  0  0  0  0  0
   26.6400   17.3690   -0.5840 C   0  0  0  0  0  0  0  0  0  0  0  0
   27.0760   17.8880   -1.9580 C   0  0  0  0  0  0  0  0  0  0  0  0
   28.5380   17.5820   -2.2350 C   0  0  0  0  0  0  0  0  0  0  0  0
   28.7670   16.1490   -2.4330 N   0  0  0  0  0  0  0  0  0  0  0  0
   29.3780   15.3460   -1.5600 C   0  0  0  0  0  0  0  0  0  0  0  0
   29.5280   14.0620   -1.8480 N   0  0  0  0  0  0  0  0  0  0  0  0
   29.8450   15.8210   -0.4060 N   0  0  0  0  0  0  0  0  0  0  0  0
   24.2190   15.4000   -0.9560 N   0  0  0  0  0  0  0  0  0  0  0  0
   23.5010   14.4560   -1.8040 C   0  0  2  0  0  0  0  0  0  0  0  0
   22.0210   14.8400   -1.9480 C   0  0  0  0  0  0  0  0  0  0  0  0
   21.4320   14.7090   -3.0220 O   0  0  0  0  0  0  0  0  0  0  0  0
   23.6370   13.0370   -1.2410 C   0  0  0  0  0  0  0  0  0  0  0  0
   24.6270   12.0360   -1.8450 C   0  0  0  0  0  0  0  0  0  0  0  0
   25.8900   12.6900   -2.3860 C   0  0  0  0  0  0  0  0  0  0  0  0
   24.9710   10.9860   -0.8070 C   0  0  0  0  0  0  0  0  0  0  0  0
   21.4190   15.3250   -0.8660 N   0  0  0  0  0  0  0  0  0  0  0  0
   20.0280   15.7410   -0.9270 C   0  0  2  0  0  0  0  0  0  0  0  0
   19.8460   16.9570   -1.8410 C   0  0  0  0  0  0  0  0  0  0  0  0
   18.8300   17.0890   -2.5230 O   0  0  0  0  0  0  0  0  0  0  0  0
   19.4920   16.0110    0.4810 C   0  0  0  0  0  0  0  0  0  0  0  0
   19.1230   14.7480    1.2540 C   0  0  0  0  0  0  0  0  0  0  0  0
   19.0970   15.0370    2.7520 C   0  0  0  0  0  0  0  0  0  0  0  0
   17.7740   14.2310    0.7680 C   0  0  0  0  0  0  0  0  0  0  0  0
   20.8550   17.8190   -1.8790 N   0  0  0  0  0  0  0  0  0  0  0  0
   20.8000   19.0420   -2.6840 C   0  0  2  0  0  0  0  0  0  0  0  0
   20.7710   18.8140   -4.2060 C   0  0  0  0  0  0  0  0  0  0  0  0
   20.3310   19.6830   -4.9610 O   0  0  0  0  0  0  0  0  0  0  0  0
   21.9660   19.9610   -2.3220 C   0  0  0  0  0  0  0  0  0  0  0  0
   21.8900   20.5670   -0.9250 C   0  0  0  0  0  0  0  0  0  0  0  0
   22.9670   21.6270   -0.7080 C   0  0  0  0  0  0  0  0  0  0  0  0
   22.8220   22.7880   -1.1380 O   0  0  0  0  0  0  0  0  0  0  0  0
   24.0580   21.2310   -0.0370 N   0  0  0  0  0  0  0  0  0  0  0  0
   21.2410   17.6540   -4.6560 N   0  0  0  0  0  0  0  0  0  0  0  0
   21.2780   17.3570   -6.0910 C   0  0  2  0  0  0  0  0  0  0  0  0
   19.9220   17.4570   -6.7810 C   0  0  0  0  0  0  0  0  0  0  0  0
   19.7060   18.3430   -7.6110 O   0  0  0  0  0  0  0  0  0  0  0  0
   21.9040   15.9900   -6.3550 C   0  0  0  0  0  0  0  0  0  0  0  0
   23.3920   15.9740   -6.0800 C   0  0  0  0  0  0  0  0  0  0  0  0
   24.1250   15.2730   -6.8110 O   0  0  0  0  0  0  0  0  0  0  0  0
   23.8300   16.6720   -5.1380 O   0  0  0  0  0  0  0  0  0  0  0  0
  2  1  1  6
  3  2  1  0
  4  3  2  0
  5  2  1  0
  6  5  1  0
  7  6  1  0
  8  7  1  0
  9  8  1  0
 10  3  1  0
 11 10  1  1
 12 11  1  0
 13 12  2  0
 14 11  1  0
 15 14  1  0
 14 16  1  6
 17 15  1  0
 18 12  1  0
 19 18  1  0
 20 19  1  0
 21 20  2  0
 19 22  1  1
 23 22  1  0
 24 23  1  0
 25 23  1  0
 26 20  1  0
 27 26  1  0
 28 27  1  0
 29 28  2  0
 27 30  1  1
 31 30  1  0
 32 31  1  0
 33 31  2  0
 34 32  2  0
 35 34  1  0
 35 33  1  0
 36 28  1  0
 37 36  1  0
 38 37  1  0
 39 38  2  0
 37 40  1  1
 41 40  1  0
 42 41  1  0
 43 42  1  0
 44 43  1  0
 45 44  1  0
 46 44  2  0
 47 38  1  0
 48 47  1  0
 49 48  1  0
 50 49  2  0
 48 51  1  1
 52 51  1  0
 53 52  1  0
 54 52  1  0
 55 49  1  0
 56 55  1  0
 57 56  1  0
 58 57  2  0
 56 59  1  1
 60 59  1  0
 61 60  1  0
 62 60  1  0
 63 57  1  0
 64 63  1  0
 65 64  1  0
 66 65  2  0
 64 67  1  6
 68 67  1  0
 69 68  1  0
 70 69  2  0
 71 69  1  0
 72 65  1  0
 73 72  1  0
 74 73  1  0
 75 74  2  0
 73 76  1  1
 77 76  1  0
 78 77  2  0
 79 77  1  0
M  END
$$$$
5DYB
     RDKit          3D

 76 76  0  0  0  0  0  0  0  0999 V2000
    8.0270   -1.7610   34.8600 N   0  0  0  0  0  0  0  0  0  0  0  0
    7.8340   -0.4980   34.1580 C   0  0  2  0  0  0  0  0  0  0  0  0
    6.9120    0.4190   34.9540 C   0  0  0  0  0  0  0  0  0  0  0  0
    5.7200    0.1400   35.0980 O   0  0  0  0  0  0  0  0  0  0  0  0
    7.2620   -0.7430   32.7620 C   0  0  0  0  0  0  0  0  0  0  0  0
    7.4830    0.4050   31.7920 C   0  0  0  0  0  0  0  0  0  0  0  0
    8.9590    0.5730   31.4820 C   0  0  0  0  0  0  0  0  0  0  0  0
    9.1660    1.4990   30.2970 C   0  0  0  0  0  0  0  0  0  0  0  0
   10.6010    1.5840   29.9040 N   0  0  0  0  0  0  0  0  0  0  0  0
    7.4640    1.5130   35.4670 N   0  0  0  0  0  0  0  0  0  0  0  0
    6.7310    2.3800   36.3850 C   0  0  2  0  0  0  0  0  0  0  0  0
    5.4980    3.0170   35.7500 C   0  0  0  0  0  0  0  0  0  0  0  0
    4.4120    2.9840   36.3270 O   0  0  0  0  0  0  0  0  0  0  0  0
    7.6370    3.4890   36.9360 C   0  0  2  0  0  0  0  0  0  0  0  0
    8.8230    2.8690   37.6750 C   0  0  0  0  0  0  0  0  0  0  0  0
    6.8480    4.4130   37.8540 C   0  0  0  0  0  0  0  0  0  0  0  0
    9.8250    3.8770   38.1730 C   0  0  0  0  0  0  0  0  0  0  0  0
    5.6720    3.5900   34.5630 N   0  0  0  0  0  0  0  0  0  0  0  0
    4.5760    4.2200   33.8370 C   0  0  2  0  0  0  0  0  0  0  0  0
    3.4650    3.2220   33.5330 C   0  0  0  0  0  0  0  0  0  0  0  0
    2.2840    3.5480   33.6450 O   0  0  0  0  0  0  0  0  0  0  0  0
    5.0870    4.8520   32.5390 C   0  0  0  0  0  0  0  0  0  0  0  0
    4.0500    5.5600   31.6650 C   0  0  0  0  0  0  0  0  0  0  0  0
    3.3460    6.6420   32.4570 C   0  0  0  0  0  0  0  0  0  0  0  0
    4.6890    6.1510   30.4160 C   0  0  0  0  0  0  0  0  0  0  0  0
    3.8510    2.0100   33.1480 N   0  0  0  0  0  0  0  0  0  0  0  0
    2.8950    0.9470   32.8670 C   0  0  2  0  0  0  0  0  0  0  0  0
    2.0180    0.6870   34.0900 C   0  0  0  0  0  0  0  0  0  0  0  0
    0.8060    0.4950   33.9690 O   0  0  0  0  0  0  0  0  0  0  0  0
    3.6290   -0.3300   32.4460 C   0  0  0  0  0  0  0  0  0  0  0  0
    2.7220   -1.4420   32.0190 C   0  0  0  0  0  0  0  0  0  0  0  0
    1.4070   -1.2380   31.6540 N   0  0  0  0  0  0  0  0  0  0  0  0
    2.9370   -2.7750   31.9100 C   0  0  0  0  0  0  0  0  0  0  0  0
    0.8550   -2.3930   31.3360 C   0  0  0  0  0  0  0  0  0  0  0  0
    1.7620   -3.3440   31.4820 N   0  0  0  0  0  0  0  0  0  0  0  0
    2.6370    0.6970   35.2670 N   0  0  0  0  0  0  0  0  0  0  0  0
    1.9160    0.5110   36.5210 C   0  0  2  0  0  0  0  0  0  0  0  0
    0.8290    1.5540   36.7300 C   0  0  0  0  0  0  0  0  0  0  0  0
   -0.3360    1.2170   36.9380 O   0  0  0  0  0  0  0  0  0  0  0  0
    2.8730    0.5690   37.7110 C   0  0  0  0  0  0  0  0  0  0  0  0
    3.6020   -0.7120   38.0280 C   0  0  0  0  0  0  0  0  0  0  0  0
    3.6780   -0.8940   39.5370 C   0  0  0  0  0  0  0  0  0  0  0  0
    3.7060    0.3880   40.2390 N   0  0  0  0  0  0  0  0  0  0  0  0
    4.8150    0.9970   40.6480 C   0  0  0  0  0  0  0  0  0  0  0  0
    5.9980    0.4400   40.4270 N   0  0  0  0  0  0  0  0  0  0  0  0
    4.7430    2.1610   41.2800 N   0  0  0  0  0  0  0  0  0  0  0  0
    1.2260    2.8210   36.6830 N   0  0  0  0  0  0  0  0  0  0  0  0
    0.3580    3.9170   37.0860 C   0  0  2  0  0  0  0  0  0  0  0  0
   -0.8700    4.0540   36.1920 C   0  0  0  0  0  0  0  0  0  0  0  0
   -1.9410    4.4390   36.6670 O   0  0  0  0  0  0  0  0  0  0  0  0
    1.1570    5.2180   37.1190 C   0  0  0  0  0  0  0  0  0  0  0  0
    2.3840    5.1120   38.0380 C   0  0  0  0  0  0  0  0  0  0  0  0
    3.1770    6.4070   38.0780 C   0  0  0  0  0  0  0  0  0  0  0  0
    1.9810    4.6930   39.4450 C   0  0  0  0  0  0  0  0  0  0  0  0
   -0.7180    3.7300   34.9090 N   0  0  0  0  0  0  0  0  0  0  0  0
   -1.8600    3.6700   33.9960 C   0  0  2  0  0  0  0  0  0  0  0  0
   -2.8370    2.5870   34.4420 C   0  0  0  0  0  0  0  0  0  0  0  0
   -4.0480    2.8020   34.4720 O   0  0  0  0  0  0  0  0  0  0  0  0
   -1.4170    3.3940   32.5550 C   0  0  0  0  0  0  0  0  0  0  0  0
   -1.1270    4.5450   31.5830 C   0  0  0  0  0  0  0  0  0  0  0  0
   -2.1690    5.6510   31.6760 C   0  0  0  0  0  0  0  0  0  0  0  0
    0.2590    5.0920   31.7900 C   0  0  0  0  0  0  0  0  0  0  0  0
   -2.2940    1.4170   34.7720 N   0  0  0  0  0  0  0  0  0  0  0  0
   -3.0860    0.3020   35.2780 C   0  0  2  0  0  0  0  0  0  0  0  0
   -3.7370    0.6540   36.6150 C   0  0  0  0  0  0  0  0  0  0  0  0
   -4.9600    0.6360   36.7480 O   0  0  0  0  0  0  0  0  0  0  0  0
   -2.2140   -0.9490   35.4350 C   0  0  0  0  0  0  0  0  0  0  0  0
   -2.3580   -1.9730   34.3260 C   0  0  0  0  0  0  0  0  0  0  0  0
   -1.4830   -3.1930   34.5440 C   0  0  0  0  0  0  0  0  0  0  0  0
   -0.6470   -3.2210   35.4480 O   0  0  0  0  0  0  0  0  0  0  0  0
   -1.6750   -4.2140   33.7170 N   0  0  0  0  0  0  0  0  0  0  0  0
   -2.9050    0.9820   37.5990 N   0  0  0  0  0  0  0  0  0  0  0  0
   -3.3720    1.2810   38.9480 C   0  0  2  0  0  0  0  0  0  0  0  0
   -3.8630    2.7190   39.0660 C   0  0  0  0  0  0  0  0  0  0  0  0
   -5.0290    2.9640   39.3730 O   0  0  0  0  0  0  0  0  0  0  0  0
   -2.2580    1.0230   39.9660 C   0  0  0  0  0  0  0  0  0  0  0  0
  2  1  1  1
  3  2  1  0
  4  3  2  0
  5  2  1  0
  6  5  1  0
  7  6  1  0
  8  7  1  0
  9  8  1  0
 10  3  1  0
 11 10  1  6
 12 11  1  0
 13 12  2  0
 14 11  1  0
 15 14  1  0
 14 16  1  1
 17 15  1  0
 18 12  1  0
 19 18  1  0
 20 19  1  0
 21 20  2  0
 19 22  1  6
 23 22  1  0
 24 23  1  0
 25 23  1  0
 26 20  1  0
 27 26  1  0
 28 27  1  0
 29 28  2  0
 27 30  1  1
 31 30  1  0
 32 31  1  0
 33 31  2  0
 34 32  2  0
 35 34  1  0
 35 33  1  0
 36 28  1  0
 37 36  1  0
 38 37  1  0
 39 38  2  0
 37 40  1  1
 41 40  1  0
 42 41  1  0
 43 42  1  0
 44 43  1  0
 45 44  1  0
 46 44  2  0
 47 38  1  0
 48 47  1  0
 49 48  1  0
 50 49  2  0
 48 51  1  6
 52 51  1  0
 53 52  1  0
 54 52  1  0
 55 49  1  0
 56 55  1  0
 57 56  1  0
 58 57  2  0
 56 59  1  6
 60 59  1  0
 61 60  1  0
 62 60  1  0
 63 57  1  0
 64 63  1  0
 65 64  1  0
 66 65  2  0
 64 67  1  1
 68 67  1  0
 69 68  1  0
 70 69  2  0
 71 69  1  0
 72 65  1  0
 73 72  1  0
 74 73  1  0
 75 74  2  0
 73 76  1  1
M  END
$$$$
3CBO
     RDKit          3D

 37 36  0  0  0  0  0  0  0  0999 V2000
   14.3090   -8.2880   27.0130 N   0  0  0  0  0  0  0  0  0  0  0  0
   13.5500   -9.0830   26.0470 C   0  0  2  0  0  0  0  0  0  0  0  0
   12.8320   -8.1910   25.0420 C   0  0  0  0  0  0  0  0  0  0  0  0
   12.4130   -8.6490   23.9730 O   0  0  0  0  0  0  0  0  0  0  0  0
   12.5550   -9.9760   26.7710 C   0  0  0  0  0  0  0  0  0  0  0  0
   12.6830   -6.9130   25.3770 N   0  0  0  0  0  0  0  0  0  0  0  0
   12.0220   -5.9680   24.4850 C   0  0  2  0  0  0  0  0  0  0  0  0
   13.0370   -5.0030   23.8880 C   0  0  0  0  0  0  0  0  0  0  0  0
   12.8160   -3.7920   23.8290 O   0  0  0  0  0  0  0  0  0  0  0  0
   10.9260   -5.2050   25.2330 C   0  0  0  0  0  0  0  0  0  0  0  0
    9.8210   -6.1180   25.7410 C   0  0  0  0  0  0  0  0  0  0  0  0
    8.6090   -5.3520   26.2350 C   0  0  0  0  0  0  0  0  0  0  0  0
    7.5520   -6.2690   26.6550 N   0  0  0  0  0  0  0  0  0  0  0  0
    6.3650   -5.8900   27.1150 C   0  0  0  0  0  0  0  0  0  0  0  0
    6.0700   -4.6030   27.2190 N   0  0  0  0  0  0  0  0  0  0  0  0
    5.4710   -6.8020   27.4730 N   0  0  0  0  0  0  0  0  0  0  0  0
   14.1570   -5.5640   23.4480 N   0  0  0  0  0  0  0  0  0  0  0  0
   15.2280   -4.7930   22.8370 C   0  0  2  0  0  0  0  0  0  0  0  0
   15.9120   -5.6700   21.7980 C   0  0  0  0  0  0  0  0  0  0  0  0
   15.8560   -6.8960   21.8780 O   0  0  0  0  0  0  0  0  0  0  0  0
   16.2370   -4.3540   23.8990 C   0  0  0  0  0  0  0  0  0  0  0  0
   16.7740   -5.4720   24.5820 O   0  0  0  0  0  0  0  0  0  0  0  0
   16.5480   -5.0400   20.8180 N   0  0  0  0  0  0  0  0  0  0  0  0
   17.2410   -5.7760   19.7670 C   0  0  1  0  0  0  0  0  0  0  0  0
   17.7700   -4.8010   18.7180 C   0  0  0  0  0  0  0  0  0  0  0  0
   16.7080   -3.8710   18.1550 C   0  0  0  0  0  0  0  0  0  0  0  0
   17.3500   -2.7420   17.3770 C   0  0  0  0  0  0  0  0  0  0  0  0
   16.3130   -1.7910   16.8210 C   0  0  0  0  0  0  0  0  0  0  0  0
   16.9420   -0.7150   16.0650 N   0  0  0  0  0  0  0  0  0  0  0  0
   15.9370    0.2700   15.5930 C   0  0  0  0  0  0  0  0  0  0  0  0
   18.3990   -6.5580   20.3780 C   0  0  0  0  0  0  0  0  0  0  0  0
   19.0340   -6.0970   21.3270 O   0  0  0  0  0  0  0  0  0  0  0  0
   18.6660   -7.7420   19.8350 N   0  0  0  0  0  0  0  0  0  0  0  0
   19.7510   -8.5800   20.3250 C   0  0  2  0  0  0  0  0  0  0  0  0
   20.5810   -9.1360   19.1760 C   0  0  0  0  0  0  0  0  0  0  0  0
   20.2060   -8.8910   18.0080 O   0  0  0  0  0  0  0  0  0  0  0  0
   19.1960   -9.7150   21.1740 C   0  0  0  0  0  0  0  0  0  0  0  0
  2  1  1  0
  3  2  1  0
  4  3  2  0
  2  5  1  1
  6  3  1  0
  7  6  1  0
  8  7  1  0
  9  8  2  0
  7 10  1  1
 11 10  1  0
 12 11  1  0
 13 12  1  0
 14 13  1  0
 15 14  1  0
 16 14  2  0
 17  8  1  0
 18 17  1  0
 19 18  1  0
 20 19  2  0
 18 21  1  1
 22 21  1  0
 23 19  1  0
 24 23  1  0
 24 25  1  6
 26 25  1  0
 27 26  1  0
 28 27  1  0
 29 28  1  0
 30 29  1  0
 31 24  1  0
 32 31  1  0
 33 31  1  0
 34 33  1  0
 35 34  1  0
 36 35  2  0
 34 37  1  6
M  END
$$$$
5KRJ
     RDKit          3D

 79 78  0  0  0  0  0  0  0  0999 V2000
    4.3770  -18.8920   34.2810 N   0  0  0  0  0  0  0  0  0  0  0  0
    5.7830  -18.7480   33.9240 C   0  0  2  0  0  0  0  0  0  0  0  0
    6.3370  -17.4050   34.3920 C   0  0  0  0  0  0  0  0  0  0  0  0
    6.9210  -17.3060   35.4720 O   0  0  0  0  0  0  0  0  0  0  0  0
    5.9700  -18.8920   32.4130 C   0  0  0  0  0  0  0  0  0  0  0  0
    6.1510  -16.3770   33.5690 N   0  0  0  0  0  0  0  0  0  0  0  0
    6.6420  -15.0490   33.8980 C   0  0  2  0  0  0  0  0  0  0  0  0
    5.7740  -14.4060   34.9750 C   0  0  0  0  0  0  0  0  0  0  0  0
    4.6260  -14.7960   35.2060 O   0  0  0  0  0  0  0  0  0  0  0  0
    6.6550  -14.1560   32.6570 C   0  0  0  0  0  0  0  0  0  0  0  0
    7.3550  -14.7510   31.4480 C   0  0  0  0  0  0  0  0  0  0  0  0
    7.1950  -13.8480   30.2350 C   0  0  0  0  0  0  0  0  0  0  0  0
    7.7500  -14.5030   28.9810 C   0  0  0  0  0  0  0  0  0  0  0  0
    7.5210  -13.6710   27.7680 N   0  0  0  0  0  0  0  0  0  0  0  0
    6.3430  -13.3970   35.6390 N   0  0  0  0  0  0  0  0  0  0  0  0
    5.5590  -12.5910   36.5690 C   0  0  2  0  0  0  0  0  0  0  0  0
    4.4220  -11.9010   35.8330 C   0  0  0  0  0  0  0  0  0  0  0  0
    3.3320  -11.7020   36.3830 O   0  0  0  0  0  0  0  0  0  0  0  0
    6.4640  -11.5730   37.2840 C   0  0  2  0  0  0  0  0  0  0  0  0
    7.6700  -12.2820   37.8940 C   0  0  0  0  0  0  0  0  0  0  0  0
    5.6810  -10.8160   38.3460 C   0  0  0  0  0  0  0  0  0  0  0  0
    8.7130  -11.3420   38.4290 C   0  0  0  0  0  0  0  0  0  0  0  0
    4.6580  -11.5280   34.5750 N   0  0  0  0  0  0  0  0  0  0  0  0
    3.6190  -10.8810   33.7840 C   0  0  2  0  0  0  0  0  0  0  0  0
    2.4590  -11.8330   33.5180 C   0  0  0  0  0  0  0  0  0  0  0  0
    1.2890  -11.4600   33.6640 O   0  0  0  0  0  0  0  0  0  0  0  0
    4.2160  -10.3650   32.4770 C   0  0  0  0  0  0  0  0  0  0  0  0
    3.2660   -9.6460   31.5260 C   0  0  0  0  0  0  0  0  0  0  0  0
    2.6580   -8.4280   32.1950 C   0  0  0  0  0  0  0  0  0  0  0  0
    4.0130   -9.2530   30.2680 C   0  0  0  0  0  0  0  0  0  0  0  0
    2.7670  -13.0730   33.1240 N   0  0  0  0  0  0  0  0  0  0  0  0
    1.7200  -14.0720   32.9310 C   0  0  2  0  0  0  0  0  0  0  0  0
    1.0200  -14.3910   34.2470 C   0  0  0  0  0  0  0  0  0  0  0  0
   -0.1810  -14.6860   34.2670 O   0  0  0  0  0  0  0  0  0  0  0  0
    2.3130  -15.3370   32.3110 C   0  0  0  0  0  0  0  0  0  0  0  0
    1.7580  -14.3230   35.3570 N   0  0  0  0  0  0  0  0  0  0  0  0
    1.1790  -14.5680   36.6730 C   0  0  2  0  0  0  0  0  0  0  0  0
    0.0510  -13.5840   36.9680 C   0  0  0  0  0  0  0  0  0  0  0  0
   -1.0810  -13.9800   37.2660 O   0  0  0  0  0  0  0  0  0  0  0  0
    2.2780  -14.4750   37.7360 C   0  0  0  0  0  0  0  0  0  0  0  0
    1.8430  -14.8370   39.1480 C   0  0  0  0  0  0  0  0  0  0  0  0
    2.8510  -14.3320   40.1760 C   0  0  0  0  0  0  0  0  0  0  0  0
    2.2080  -13.4960   41.1870 N   0  0  0  0  0  0  0  0  0  0  0  0
    2.8600  -12.7340   42.0600 C   0  0  0  0  0  0  0  0  0  0  0  0
    4.1860  -12.6890   42.0520 N   0  0  0  0  0  0  0  0  0  0  0  0
    2.1820  -12.0090   42.9410 N   0  0  0  0  0  0  0  0  0  0  0  0
    0.3440  -12.2850   36.8670 N   0  0  0  0  0  0  0  0  0  0  0  0
   -0.6350  -11.2740   37.2520 C   0  0  2  0  0  0  0  0  0  0  0  0
   -1.7800  -11.1810   36.2540 C   0  0  0  0  0  0  0  0  0  0  0  0
   -2.9040  -10.8370   36.6360 O   0  0  0  0  0  0  0  0  0  0  0  0
    0.0490   -9.9160   37.3960 C   0  0  0  0  0  0  0  0  0  0  0  0
    1.3390   -9.9430   38.2150 C   0  0  0  0  0  0  0  0  0  0  0  0
    1.9910   -8.5730   38.2480 C   0  0  0  0  0  0  0  0  0  0  0  0
    1.0680  -10.4450   39.6230 C   0  0  0  0  0  0  0  0  0  0  0  0
   -1.5180  -11.4780   34.9790 N   0  0  0  0  0  0  0  0  0  0  0  0
   -2.5590  -11.3520   33.9650 C   0  0  2  0  0  0  0  0  0  0  0  0
   -3.6390  -12.4140   34.1380 C   0  0  0  0  0  0  0  0  0  0  0  0
   -4.8210  -12.1470   33.8950 O   0  0  0  0  0  0  0  0  0  0  0  0
   -1.9420  -11.4340   32.5670 C   0  0  0  0  0  0  0  0  0  0  0  0
   -1.2840  -10.1700   32.0070 C   0  0  0  0  0  0  0  0  0  0  0  0
   -0.4980  -10.4790   30.7390 C   0  0  0  0  0  0  0  0  0  0  0  0
   -2.3270   -9.0950   31.7360 C   0  0  0  0  0  0  0  0  0  0  0  0
   -3.2590  -13.6190   34.5610 N   0  0  0  0  0  0  0  0  0  0  0  0
   -4.2140  -14.7090   34.6970 C   0  0  2  0  0  0  0  0  0  0  0  0
   -4.9200  -14.7300   36.0470 C   0  0  0  0  0  0  0  0  0  0  0  0
   -5.8750  -15.4970   36.2130 O   0  0  0  0  0  0  0  0  0  0  0  0
   -3.5220  -16.0570   34.4640 C   0  0  0  0  0  0  0  0  0  0  0  0
   -2.6300  -16.5070   35.6000 C   0  0  0  0  0  0  0  0  0  0  0  0
   -2.1350  -17.9230   35.4090 C   0  0  0  0  0  0  0  0  0  0  0  0
   -2.5270  -18.6060   34.4620 O   0  0  0  0  0  0  0  0  0  0  0  0
   -1.2720  -18.3760   36.3110 N   0  0  0  0  0  0  0  0  0  0  0  0
   -4.4860  -13.9160   37.0070 N   0  0  0  0  0  0  0  0  0  0  0  0
   -5.1610  -13.8280   38.3010 C   0  0  2  0  0  0  0  0  0  0  0  0
   -6.4410  -13.0040   38.2070 C   0  0  0  0  0  0  0  0  0  0  0  0
   -7.4580  -13.3460   38.8110 O   0  0  0  0  0  0  0  0  0  0  0  0
   -4.2340  -13.2220   39.3560 C   0  0  0  0  0  0  0  0  0  0  0  0
   -3.1100  -14.1560   39.7490 C   0  0  0  0  0  0  0  0  0  0  0  0
   -3.2690  -15.3820   39.5760 O   0  0  0  0  0  0  0  0  0  0  0  0
   -2.0710  -13.6640   40.2360 O   0  0  0  0  0  0  0  0  0  0  0  0
  2  1  1  0
  3  2  1  0
  4  3  2  0
  2  5  1  6
  6  3  1  0
  7  6  1  0
  8  7  1  0
  9  8  2  0
  7 10  1  6
 11 10  1  0
 12 11  1  0
 13 12  1  0
 14 13  1  0
 15  8  1  0
 16 15  1  6
 17 16  1  0
 18 17  2  0
 19 16  1  0
 20 19  1  0
 19 21  1  1
 22 20  1  0
 23 17  1  0
 24 23  1  0
 25 24  1  0
 26 25  2  0
 24 27  1  6
 28 27  1  0
 29 28  1  0
 30 28  1  0
 31 25  1  0
 32 31  1  0
 33 32  1  0
 34 33  2  0
 32 35  1  1
 36 33  1  0
 37 36  1  0
 38 37  1  0
 39 38  2  0
 37 40  1  1
 41 40  1  0
 42 41  1  0
 43 42  1  0
 44 43  1  0
 45 44  1  0
 46 44  2  0
 47 38  1  0
 48 47  1  0
 49 48  1  0
 50 49  2  0
 48 51  1  6
 52 51  1  0
 53 52  1  0
 54 52  1  0
 55 49  1  0
 56 55  1  0
 57 56  1  0
 58 57  2  0
 56 59  1  6
 60 59  1  0
 61 60  1  0
 62 60  1  0
 63 57  1  0
 64 63  1  0
 65 64  1  0
 66 65  2  0
 64 67  1  1
 68 67  1  0
 69 68  1  0
 70 69  2  0
 71 69  1  0
 72 65  1  0
 73 72  1  0
 74 73  1  0
 75 74  2  0
 73 76  1  1
 77 76  1  0
 78 77  2  0
 79 77  1  0
M  END
$$$$
5E1C
     RDKit          3D

 30 32  0  0  0  0  0  0  0  0999 V2000
   24.5830   -0.4480    5.3230 O   0  0  0  0  0  0  0  0  0  0  0  0
   23.2590   -0.8710    5.1910 C   0  0  0  0  0  0  0  0  0  0  0  0
   22.9930   -2.2190    5.1350 C   0  0  0  0  0  0  0  0  0  0  0  0
   21.6240   -2.6890    4.9980 C   0  0  0  0  0  0  0  0  0  0  0  0
   20.5600   -1.7600    4.9450 C   0  0  0  0  0  0  0  0  0  0  0  0
   19.0680   -2.2580    4.7860 C   0  0  0  0  0  0  0  0  0  0  0  0
   18.3520   -1.7730    3.5070 C   0  0  0  0  0  0  0  0  0  0  0  0
   19.1260   -1.6330    2.3420 C   0  0  0  0  0  0  0  0  0  0  0  0
   18.5210   -1.1600    1.1260 C   0  0  0  0  0  0  0  0  0  0  0  0
   17.1340   -0.8380    1.0990 C   0  0  0  0  0  0  0  0  0  0  0  0
   16.5330   -0.3730   -0.1230 O   0  0  0  0  0  0  0  0  0  0  0  0
   16.3510   -0.9740    2.2660 C   0  0  0  0  0  0  0  0  0  0  0  0
   16.9620   -1.4290    3.4800 C   0  0  0  0  0  0  0  0  0  0  0  0
   18.4750   -3.1360    5.7790 C   0  0  2  0  0  0  0  0  0  0  0  0
   17.1030   -3.7980    5.6550 C   0  0  0  0  0  0  0  0  0  0  0  0
   17.1350   -5.2480    6.0950 C   0  0  0  0  0  0  0  0  0  0  0  0
   17.7410   -5.4080    7.4940 C   0  0  0  0  0  0  0  0  0  0  0  0
   19.1410   -4.8200    7.5260 C   0  0  2  0  0  0  0  0  0  0  0  0
   19.7200   -4.9340    8.9880 C   0  0  2  0  0  0  0  0  0  0  0  0
   20.9050   -3.9690    9.1560 C   0  0  2  0  0  0  0  0  0  0  0  0
   22.1370   -4.2980    8.6710 O   0  0  0  0  0  0  0  0  0  0  0  0
   23.1690   -4.2090    9.6750 C   0  0  0  0  0  0  0  0  0  0  0  0
   20.7750   -2.9860    9.7760 O   0  0  0  0  0  0  0  0  0  0  0  0
   20.1390   -6.3840    9.3460 C   0  0  2  0  0  0  0  0  0  0  0  0
   21.0200   -6.5930   10.4330 O   0  0  0  0  0  0  0  0  0  0  0  0
   20.5430   -7.5550   11.3810 C   0  0  0  0  0  0  0  0  0  0  0  0
   19.9970   -7.2930    8.5100 O   0  0  0  0  0  0  0  0  0  0  0  0
   19.1360   -3.3460    7.1240 C   0  0  0  0  0  0  0  0  0  0  0  0
   20.8360   -0.4000    4.9980 C   0  0  0  0  0  0  0  0  0  0  0  0
   22.2090    0.0610    5.1300 C   0  0  0  0  0  0  0  0  0  0  0  0
  2  1  1  0
  3  2  1  0
  4  3  1  0
  5  4  1  0
  6  5  1  0
  7  6  1  0
  8  7  1  0
  9  8  1  0
 10  9  1  0
 11 10  1  0
 12 10  1  0
 13 12  1  0
 13  7  1  0
 14  6  1  1
 15 14  1  0
 16 15  1  0
 17 16  1  0
 18 17  1  1
 19 18  1  0
 19 20  1  6
 21 20  1  0
 22 21  1  0
 20 23  1  1
 24 19  1  0
 25 24  1  0
 26 25  1  0
 24 27  1  6
 28 18  1  0
 28 14  1  0
 29  5  1  0
 30 29  1  0
 30  2  1  0
M  END
$$$$
5E15
     RDKit          3D

 76 76  0  0  0  0  0  0  0  0999 V2000
  -14.6020    0.0490   20.9200 N   0  0  0  0  0  0  0  0  0  0  0  0
  -13.9710   -1.2620   20.8370 C   0  0  2  0  0  0  0  0  0  0  0  0
  -13.3140   -1.6420   22.1630 C   0  0  0  0  0  0  0  0  0  0  0  0
  -12.8700   -0.7740   22.9150 O   0  0  0  0  0  0  0  0  0  0  0  0
  -12.9430   -1.2880   19.7030 C   0  0  0  0  0  0  0  0  0  0  0  0
  -13.5240   -0.9430   18.3410 C   0  0  0  0  0  0  0  0  0  0  0  0
  -14.7250   -1.8220   18.0340 C   0  0  0  0  0  0  0  0  0  0  0  0
  -14.3200   -3.2800   17.8720 C   0  0  0  0  0  0  0  0  0  0  0  0
  -15.4810   -4.2040   18.0070 N   0  0  0  0  0  0  0  0  0  0  0  0
  -13.2630   -2.9410   22.4450 N   0  0  0  0  0  0  0  0  0  0  0  0
  -12.7170   -3.4440   23.7030 C   0  0  2  0  0  0  0  0  0  0  0  0
  -11.2400   -3.0890   23.8580 C   0  0  0  0  0  0  0  0  0  0  0  0
  -10.7600   -2.8590   24.9700 O   0  0  0  0  0  0  0  0  0  0  0  0
  -12.8800   -4.9780   23.8160 C   0  0  2  0  0  0  0  0  0  0  0  0
  -14.3360   -5.3820   23.5850 C   0  0  0  0  0  0  0  0  0  0  0  0
  -12.4070   -5.4780   25.1760 C   0  0  0  0  0  0  0  0  0  0  0  0
  -15.2910   -4.8300   24.6180 C   0  0  0  0  0  0  0  0  0  0  0  0
  -10.5300   -3.0360   22.7350 N   0  0  0  0  0  0  0  0  0  0  0  0
   -9.0980   -2.7570   22.7400 C   0  0  2  0  0  0  0  0  0  0  0  0
   -8.7820   -1.4190   23.3990 C   0  0  0  0  0  0  0  0  0  0  0  0
   -8.0970   -1.3760   24.4190 O   0  0  0  0  0  0  0  0  0  0  0  0
   -8.5440   -2.7810   21.3140 C   0  0  0  0  0  0  0  0  0  0  0  0
   -7.0340   -2.6160   21.1510 C   0  0  0  0  0  0  0  0  0  0  0  0
   -6.2900   -3.5570   22.0820 C   0  0  0  0  0  0  0  0  0  0  0  0
   -6.6400   -2.8720   19.7070 C   0  0  0  0  0  0  0  0  0  0  0  0
   -9.2950   -0.3330   22.8280 N   0  0  0  0  0  0  0  0  0  0  0  0
   -9.0130    0.9990   23.3540 C   0  0  2  0  0  0  0  0  0  0  0  0
   -9.9320    1.3760   24.5150 C   0  0  0  0  0  0  0  0  0  0  0  0
  -10.0660    2.5520   24.8510 O   0  0  0  0  0  0  0  0  0  0  0  0
   -9.1140    2.0480   22.2420 C   0  0  0  0  0  0  0  0  0  0  0  0
  -10.4500    2.1090   21.5830 C   0  0  0  0  0  0  0  0  0  0  0  0
  -11.5410    2.7440   22.1540 N   0  0  0  0  0  0  0  0  0  0  0  0
  -10.8840    1.6240   20.3930 C   0  0  0  0  0  0  0  0  0  0  0  0
  -12.5750    2.6380   21.3440 C   0  0  0  0  0  0  0  0  0  0  0  0
  -12.2130    1.9690   20.2760 N   0  0  0  0  0  0  0  0  0  0  0  0
  -10.5690    0.3780   25.1200 N   0  0  0  0  0  0  0  0  0  0  0  0
  -11.2550    0.5800   26.3900 C   0  0  2  0  0  0  0  0  0  0  0  0
  -10.3410    0.0980   27.5090 C   0  0  0  0  0  0  0  0  0  0  0  0
  -10.1960    0.7560   28.5370 O   0  0  0  0  0  0  0  0  0  0  0  0
  -12.5960   -0.1580   26.4340 C   0  0  0  0  0  0  0  0  0  0  0  0
  -13.3300   -0.0160   27.7650 C   0  0  0  0  0  0  0  0  0  0  0  0
  -14.6110   -0.8370   27.7960 C   0  0  0  0  0  0  0  0  0  0  0  0
  -15.2790   -0.7710   29.0950 N   0  0  0  0  0  0  0  0  0  0  0  0
  -16.2360    0.0990   29.4030 C   0  0  0  0  0  0  0  0  0  0  0  0
  -16.6450    0.9840   28.5040 N   0  0  0  0  0  0  0  0  0  0  0  0
  -16.7860    0.0830   30.6100 N   0  0  0  0  0  0  0  0  0  0  0  0
   -9.7210   -1.0560   27.2900 N   0  0  0  0  0  0  0  0  0  0  0  0
   -8.7390   -1.5990   28.2200 C   0  0  2  0  0  0  0  0  0  0  0  0
   -7.4270   -0.8390   28.0870 C   0  0  0  0  0  0  0  0  0  0  0  0
   -6.6350   -0.7680   29.0270 O   0  0  0  0  0  0  0  0  0  0  0  0
   -8.5130   -3.0910   27.9610 C   0  0  0  0  0  0  0  0  0  0  0  0
   -9.4520   -4.1270   28.5870 C   0  0  0  0  0  0  0  0  0  0  0  0
  -10.9150   -3.8370   28.2890 C   0  0  0  0  0  0  0  0  0  0  0  0
   -9.0780   -5.5170   28.0960 C   0  0  0  0  0  0  0  0  0  0  0  0
   -7.2100   -0.2700   26.9050 N   0  0  0  0  0  0  0  0  0  0  0  0
   -5.9840    0.4580   26.6010 C   0  0  2  0  0  0  0  0  0  0  0  0
   -5.9660    1.8210   27.2880 C   0  0  0  0  0  0  0  0  0  0  0  0
   -4.9010    2.3730   27.5630 O   0  0  0  0  0  0  0  0  0  0  0  0
   -5.8300    0.6230   25.0860 C   0  0  0  0  0  0  0  0  0  0  0  0
   -4.4230    0.7560   24.5060 C   0  0  0  0  0  0  0  0  0  0  0  0
   -3.4810   -0.2320   25.1670 C   0  0  0  0  0  0  0  0  0  0  0  0
   -4.4610    0.5270   23.0030 C   0  0  0  0  0  0  0  0  0  0  0  0
   -7.1510    2.3610   27.5600 N   0  0  0  0  0  0  0  0  0  0  0  0
   -7.2670    3.6330   28.2650 C   0  0  2  0  0  0  0  0  0  0  0  0
   -7.5840    3.3950   29.7400 C   0  0  0  0  0  0  0  0  0  0  0  0
   -6.8510    3.8460   30.6210 O   0  0  0  0  0  0  0  0  0  0  0  0
   -8.3400    4.5200   27.6230 C   0  0  0  0  0  0  0  0  0  0  0  0
   -8.1270    4.7940   26.1370 C   0  0  0  0  0  0  0  0  0  0  0  0
   -8.5710    6.1880   25.7250 C   0  0  0  0  0  0  0  0  0  0  0  0
   -8.2690    7.1720   26.4000 O   0  0  0  0  0  0  0  0  0  0  0  0
   -9.2880    6.2780   24.6100 N   0  0  0  0  0  0  0  0  0  0  0  0
   -8.6740    2.6800   30.0030 N   0  0  0  0  0  0  0  0  0  0  0  0
   -9.0540    2.3360   31.3700 C   0  0  2  0  0  0  0  0  0  0  0  0
   -8.2430    1.1460   31.8770 C   0  0  0  0  0  0  0  0  0  0  0  0
   -7.0210    1.2280   32.0180 O   0  0  0  0  0  0  0  0  0  0  0  0
  -10.5520    2.0290   31.4540 C   0  0  0  0  0  0  0  0  0  0  0  0
  2  1  1  1
  3  2  1  0
  4  3  2  0
  5  2  1  0
  6  5  1  0
  7  6  1  0
  8  7  1  0
  9  8  1  0
 10  3  1  0
 11 10  1  6
 12 11  1  0
 13 12  2  0
 14 11  1  0
 15 14  1  0
 14 16  1  1
 17 15  1  0
 18 12  1  0
 19 18  1  0
 20 19  1  0
 21 20  2  0
 19 22  1  6
 23 22  1  0
 24 23  1  0
 25 23  1  0
 26 20  1  0
 27 26  1  0
 28 27  1  0
 29 28  2  0
 27 30  1  6
 31 30  1  0
 32 31  1  0
 33 31  2  0
 34 32  2  0
 35 34  1  0
 35 33  1  0
 36 28  1  0
 37 36  1  0
 38 37  1  0
 39 38  2  0
 37 40  1  6
 41 40  1  0
 42 41  1  0
 43 42  1  0
 44 43  1  0
 45 44  1  0
 46 44  2  0
 47 38  1  0
 48 47  1  0
 49 48  1  0
 50 49  2  0
 48 51  1  6
 52 51  1  0
 53 52  1  0
 54 52  1  0
 55 49  1  0
 56 55  1  0
 57 56  1  0
 58 57  2  0
 56 59  1  6
 60 59  1  0
 61 60  1  0
 62 60  1  0
 63 57  1  0
 64 63  1  0
 65 64  1  0
 66 65  2  0
 64 67  1  6
 68 67  1  0
 69 68  1  0
 70 69  2  0
 71 69  1  0
 72 65  1  0
 73 72  1  0
 74 73  1  0
 75 74  2  0
 73 76  1  6
M  END
$$$$
1YIM
     RDKit          3D

 33 37  0  0  0  0  0  0  0  0999 V2000
   31.3460   -0.6100   28.4010 C   0  0  2  0  0  0  0  0  0  0  0  0
   31.5340   -2.0300   27.8620 C   0  0  1  0  0  0  0  0  0  0  0  0
   30.3010   -2.7370   28.1140 O   0  0  0  0  0  0  0  0  0  0  0  0
   29.1000   -2.2340   27.7600 C   0  0  0  0  0  0  0  0  0  0  0  0
   28.0750   -3.1540   27.5580 C   0  0  0  0  0  0  0  0  0  0  0  0
   26.8040   -2.7160   27.1840 C   0  0  0  0  0  0  0  0  0  0  0  0
   26.5410   -1.3560   27.0290 C   0  0  0  0  0  0  0  0  0  0  0  0
   25.2990   -0.9880   26.6280 O   0  0  0  0  0  0  0  0  0  0  0  0
   27.5700   -0.4280   27.2480 C   0  0  0  0  0  0  0  0  0  0  0  0
   28.8790   -0.8580   27.6130 C   0  0  0  0  0  0  0  0  0  0  0  0
   30.0470    0.1100   27.8480 C   0  0  1  0  0  0  0  0  0  0  0  0
   29.5970    1.3180   28.6670 C   0  0  0  0  0  0  0  0  0  0  0  0
   32.6670    0.1540   28.2350 C   0  0  0  0  0  0  0  0  0  0  0  0
   32.8850    1.0110   27.1460 C   0  0  0  0  0  0  0  0  0  0  0  0
   34.1260    1.6730   27.0850 C   0  0  0  0  0  0  0  0  0  0  0  0
   35.1250    1.4780   28.0530 C   0  0  0  0  0  0  0  0  0  0  0  0
   36.3070    2.1470   27.9560 O   0  0  0  0  0  0  0  0  0  0  0  0
   34.9060    0.6090   29.1230 C   0  0  0  0  0  0  0  0  0  0  0  0
   33.6440   -0.0110   29.2310 C   0  0  0  0  0  0  0  0  0  0  0  0
   31.9270   -2.2230   26.4040 C   0  0  0  0  0  0  0  0  0  0  0  0
   32.8980   -3.1820   26.1170 C   0  0  0  0  0  0  0  0  0  0  0  0
   33.2790   -3.4380   24.7830 C   0  0  0  0  0  0  0  0  0  0  0  0
   32.7690   -2.6670   23.7490 C   0  0  2  0  0  0  0  0  0  0  0  0
   31.7900   -1.7100   23.9950 C   0  0  0  0  0  0  0  0  0  0  0  0
   31.3900   -1.5180   25.3250 C   0  0  0  0  0  0  0  0  0  0  0  0
   33.1060   -2.9180   22.4710 O   0  0  0  0  0  0  0  0  0  0  0  0
   33.7120   -4.1590   22.1090 C   0  0  0  0  0  0  0  0  0  0  0  0
   34.0200   -4.1880   20.6120 C   0  0  0  0  0  0  0  0  0  0  0  0
   32.7970   -4.2870   19.8050 N   0  0  0  0  0  0  0  0  0  0  0  0
   33.2080   -4.3320   18.3910 C   0  0  0  0  0  0  0  0  0  0  0  0
   32.0240   -3.8010   17.5810 C   0  0  0  0  0  0  0  0  0  0  0  0
   31.0960   -3.1580   18.6210 C   0  0  0  0  0  0  0  0  0  0  0  0
   31.9200   -3.1100   19.9150 C   0  0  0  0  0  0  0  0  0  0  0  0
  2  1  1  0
  3  2  1  0
  4  3  1  0
  5  4  1  0
  6  5  1  0
  7  6  1  0
  8  7  1  0
  9  7  1  0
 10  9  1  0
 10  4  1  0
 11 10  1  0
 11  1  1  0
 11 12  1  1
  1 13  1  6
 14 13  1  0
 15 14  1  0
 16 15  1  0
 17 16  1  0
 18 16  1  0
 19 13  1  0
 19 18  1  0
  2 20  1  6
 21 20  1  0
 22 21  1  0
 23 22  1  0
 24 23  1  0
 25 24  1  0
 25 20  1  0
 23 26  1  6
 27 26  1  0
 28 27  1  0
 29 28  1  0
 30 29  1  0
 31 30  1  0
 32 31  1  0
 33 32  1  0
 33 29  1  0
M  END
$$$$
1PCG
     RDKit          3D

 74 73  0  0  0  0  0  0  0  0999 V2000
    7.4970   42.9440   -1.0000 N   0  0  0  0  0  0  0  0  0  0  0  0
    6.4070   42.0830   -0.4680 C   0  0  2  0  0  0  0  0  0  0  0  0
    6.1670   40.9230   -1.4040 C   0  0  0  0  0  0  0  0  0  0  0  0
    5.7520   41.1200   -2.5420 O   0  0  0  0  0  0  0  0  0  0  0  0
    5.0830   42.8400   -0.3560 C   0  0  0  0  0  0  0  0  0  0  0  0
    5.0790   44.0400    0.5570 C   0  0  0  0  0  0  0  0  0  0  0  0
    3.6970   44.6700    0.5710 C   0  0  0  0  0  0  0  0  0  0  0  0
    3.6530   45.9110    1.4460 C   0  0  0  0  0  0  0  0  0  0  0  0
    2.2810   46.5020    1.4840 N   0  0  0  0  0  0  0  0  0  0  0  0
    6.4280   39.7110   -0.9260 N   0  0  0  0  0  0  0  0  0  0  0  0
    6.1870   38.5250   -1.7300 C   0  0  1  0  0  0  0  0  0  0  0  0
    7.4410   37.9080   -2.3340 C   0  0  0  0  0  0  0  0  0  0  0  0
    7.4460   36.7680   -2.7770 O   0  0  0  0  0  0  0  0  0  0  0  0
    5.3320   37.5210   -0.9330 C   0  0  0  0  0  0  0  0  0  0  0  0
    6.2230   36.4020    0.1840 S   0  0  0  0  0  0  0  0  0  0  0  0
    8.4920   38.7200   -2.3840 N   0  0  0  0  0  0  0  0  0  0  0  0
    9.7700   38.3470   -2.9800 C   0  0  2  0  0  0  0  0  0  0  0  0
   10.2660   36.9870   -2.5210 C   0  0  0  0  0  0  0  0  0  0  0  0
   10.7850   36.1960   -3.3040 O   0  0  0  0  0  0  0  0  0  0  0  0
   10.8270   39.4370   -2.6780 C   0  0  2  0  0  0  0  0  0  0  0  0
   10.2620   40.8130   -3.0700 C   0  0  0  0  0  0  0  0  0  0  0  0
   12.1180   39.1350   -3.4160 C   0  0  0  0  0  0  0  0  0  0  0  0
   11.1950   41.9610   -2.7430 C   0  0  0  0  0  0  0  0  0  0  0  0
   10.0750   36.7110   -1.2420 N   0  0  0  0  0  0  0  0  0  0  0  0
   10.5160   35.4500   -0.6780 C   0  0  2  0  0  0  0  0  0  0  0  0
    9.8150   34.2200   -1.2320 C   0  0  0  0  0  0  0  0  0  0  0  0
   10.4620   33.2140   -1.5750 O   0  0  0  0  0  0  0  0  0  0  0  0
   10.4060   35.4790    0.8490 C   0  0  0  0  0  0  0  0  0  0  0  0
   10.9410   34.2600    1.6120 C   0  0  0  0  0  0  0  0  0  0  0  0
   12.4430   34.1500    1.4460 C   0  0  0  0  0  0  0  0  0  0  0  0
   10.6190   34.3600    3.0900 C   0  0  0  0  0  0  0  0  0  0  0  0
    8.4930   34.2590   -1.3170 N   0  0  0  0  0  0  0  0  0  0  0  0
    7.7730   33.0980   -1.8430 C   0  0  2  0  0  0  0  0  0  0  0  0
    8.1850   32.7710   -3.2850 C   0  0  0  0  0  0  0  0  0  0  0  0
    8.0550   31.6310   -3.7220 O   0  0  0  0  0  0  0  0  0  0  0  0
    6.2810   33.3690   -1.8390 C   0  0  0  0  0  0  0  0  0  0  0  0
    5.5990   33.8290   -0.2390 S   0  0  0  0  0  0  0  0  0  0  0  0
    8.6610   33.7760   -4.0190 N   0  0  0  0  0  0  0  0  0  0  0  0
    9.0590   33.5910   -5.4210 C   0  0  2  0  0  0  0  0  0  0  0  0
   10.4440   33.0010   -5.4890 C   0  0  0  0  0  0  0  0  0  0  0  0
   10.6810   32.0710   -6.2480 O   0  0  0  0  0  0  0  0  0  0  0  0
    8.9830   34.9170   -6.1810 C   0  0  0  0  0  0  0  0  0  0  0  0
    7.8410   35.7650   -5.6970 C   0  0  0  0  0  0  0  0  0  0  0  0
    7.0840   36.4700   -6.7690 C   0  0  0  0  0  0  0  0  0  0  0  0
    5.9510   37.1730   -6.1770 N   0  0  0  0  0  0  0  0  0  0  0  0
    5.0650   37.8540   -6.8890 C   0  0  0  0  0  0  0  0  0  0  0  0
    5.1960   37.9120   -8.2110 N   0  0  0  0  0  0  0  0  0  0  0  0
    4.0580   38.4760   -6.2940 N   0  0  0  0  0  0  0  0  0  0  0  0
   11.3570   33.5270   -4.6850 N   0  0  0  0  0  0  0  0  0  0  0  0
   12.7200   33.0060   -4.6700 C   0  0  2  0  0  0  0  0  0  0  0  0
   12.7470   31.5320   -4.2480 C   0  0  0  0  0  0  0  0  0  0  0  0
   13.5590   30.7490   -4.7390 O   0  0  0  0  0  0  0  0  0  0  0  0
   13.5930   33.8530   -3.7410 C   0  0  0  0  0  0  0  0  0  0  0  0
   14.0890   35.1160   -4.4350 C   0  0  0  0  0  0  0  0  0  0  0  0
   14.8610   35.9720   -3.4750 C   0  0  0  0  0  0  0  0  0  0  0  0
   14.9770   34.7380   -5.5980 C   0  0  0  0  0  0  0  0  0  0  0  0
   11.8460   31.1530   -3.3500 N   0  0  0  0  0  0  0  0  0  0  0  0
   11.7770   29.7710   -2.8880 C   0  0  2  0  0  0  0  0  0  0  0  0
   11.0740   28.9140   -3.9360 C   0  0  0  0  0  0  0  0  0  0  0  0
   11.1010   27.6830   -3.8730 O   0  0  0  0  0  0  0  0  0  0  0  0
   11.0280   29.7000   -1.5520 C   0  0  0  0  0  0  0  0  0  0  0  0
   11.8060   30.2170   -0.3440 C   0  0  0  0  0  0  0  0  0  0  0  0
   10.9200   30.2290    0.8730 C   0  0  0  0  0  0  0  0  0  0  0  0
   13.0070   29.3390   -0.0750 C   0  0  0  0  0  0  0  0  0  0  0  0
   10.4530   29.5950   -4.8970 N   0  0  0  0  0  0  0  0  0  0  0  0
    9.7220   28.9480   -5.9740 C   0  0  2  0  0  0  0  0  0  0  0  0
   10.7090   28.3560   -6.9540 C   0  0  0  0  0  0  0  0  0  0  0  0
   11.5390   29.1360   -7.5030 O   0  0  0  0  0  0  0  0  0  0  0  0
    8.8080   29.9630   -6.6860 C   0  0  0  0  0  0  0  0  0  0  0  0
    7.9680   29.4140   -7.8430 C   0  0  0  0  0  0  0  0  0  0  0  0
    7.0520   28.2720   -7.4290 C   0  0  0  0  0  0  0  0  0  0  0  0
    7.5100   27.2580   -6.8990 O   0  0  0  0  0  0  0  0  0  0  0  0
    5.7560   28.4290   -7.6770 N   0  0  0  0  0  0  0  0  0  0  0  0
   10.6370   27.1240   -7.1320 O   0  0  0  0  0  0  0  0  0  0  0  0
  2  1  1  6
  3  2  1  0
  4  3  2  0
  5  2  1  0
  6  5  1  0
  7  6  1  0
  8  7  1  0
  9  8  1  0
 10  3  1  0
 11 10  1  0
 12 11  1  0
 13 12  1  0
 11 14  1  1
 15 14  1  0
 16 12  1  0
 17 16  1  1
 18 17  1  0
 19 18  2  0
 20 17  1  0
 21 20  1  0
 20 22  1  6
 23 21  1  0
 24 18  1  0
 25 24  1  0
 26 25  1  0
 27 26  2  0
 25 28  1  1
 29 28  1  0
 30 29  1  0
 31 29  1  0
 32 26  1  0
 33 32  1  0
 34 33  1  0
 35 34  2  0
 33 36  1  6
 37 36  1  0
 38 34  1  0
 39 38  1  0
 40 39  1  0
 41 40  2  0
 39 42  1  6
 43 42  1  0
 44 43  1  0
 45 44  1  0
 46 45  1  0
 47 46  1  0
 48 46  2  0
 49 40  1  0
 50 49  1  0
 51 50  1  0
 52 51  2  0
 50 53  1  1
 54 53  1  0
 55 54  1  0
 56 54  1  0
 57 51  1  0
 58 57  1  0
 59 58  1  0
 60 59  2  0
 58 61  1  1
 62 61  1  0
 63 62  1  0
 64 62  1  0
 65 59  1  0
 66 65  1  0
 67 66  1  0
 68 67  2  0
 66 69  1  6
 70 69  1  0
 71 70  1  0
 72 71  2  0
 73 71  1  0
 74 67  1  0
M  END
$$$$
5E14
     RDKit          3D

 79 79  0  0  0  0  0  0  0  0999 V2000
   29.8740   18.0660    7.2460 N   0  0  0  0  0  0  0  0  0  0  0  0
   29.4950   16.7060    6.8810 C   0  0  2  0  0  0  0  0  0  0  0  0
   29.1220   16.6120    5.4040 C   0  0  0  0  0  0  0  0  0  0  0  0
   28.9060   17.6280    4.7420 O   0  0  0  0  0  0  0  0  0  0  0  0
   28.3340   16.2210    7.7520 C   0  0  0  0  0  0  0  0  0  0  0  0
   27.0750   17.0600    7.6390 C   0  0  0  0  0  0  0  0  0  0  0  0
   26.0140   16.6060    8.6330 C   0  0  0  0  0  0  0  0  0  0  0  0
   26.5000   16.7510   10.0690 C   0  0  0  0  0  0  0  0  0  0  0  0
   25.4580   16.3460   11.0590 N   0  0  0  0  0  0  0  0  0  0  0  0
   29.0490   15.3870    4.8940 N   0  0  0  0  0  0  0  0  0  0  0  0
   28.7990   15.1480    3.4750 C   0  0  2  0  0  0  0  0  0  0  0  0
   27.3730   15.5150    3.0800 C   0  0  0  0  0  0  0  0  0  0  0  0
   27.1320   16.0190    1.9820 O   0  0  0  0  0  0  0  0  0  0  0  0
   29.0650   13.6780    3.1100 C   0  0  2  0  0  0  0  0  0  0  0  0
   30.4830   13.2850    3.5240 C   0  0  0  0  0  0  0  0  0  0  0  0
   28.8600   13.4400    1.6210 C   0  0  0  0  0  0  0  0  0  0  0  0
   30.8630   11.8910    3.1140 C   0  0  0  0  0  0  0  0  0  0  0  0
   26.4340   15.2690    3.9890 N   0  0  0  0  0  0  0  0  0  0  0  0
   25.0270   15.5730    3.7530 C   0  0  2  0  0  0  0  0  0  0  0  0
   24.8230   17.0610    3.4720 C   0  0  0  0  0  0  0  0  0  0  0  0
   23.9170   17.4440    2.7310 O   0  0  0  0  0  0  0  0  0  0  0  0
   24.1840   15.1370    4.9540 C   0  0  0  0  0  0  0  0  0  0  0  0
   22.6630   15.2550    4.8470 C   0  0  0  0  0  0  0  0  0  0  0  0
   22.1520   14.5110    3.6290 C   0  0  0  0  0  0  0  0  0  0  0  0
   22.0000   14.7270    6.1120 C   0  0  0  0  0  0  0  0  0  0  0  0
   25.6740   17.8930    4.0670 N   0  0  0  0  0  0  0  0  0  0  0  0
   25.6580   19.3260    3.8050 C   0  0  2  0  0  0  0  0  0  0  0  0
   25.9140   19.6010    2.3300 C   0  0  0  0  0  0  0  0  0  0  0  0
   25.2380   20.4260    1.7180 O   0  0  0  0  0  0  0  0  0  0  0  0
   26.7040   20.0480    4.6580 C   0  0  0  0  0  0  0  0  0  0  0  0
   26.3420   20.1460    6.1070 C   0  0  0  0  0  0  0  0  0  0  0  0
   27.2710   20.4080    7.0910 N   0  0  0  0  0  0  0  0  0  0  0  0
   25.1510   20.0240    6.7380 C   0  0  0  0  0  0  0  0  0  0  0  0
   26.6680   20.4400    8.2660 C   0  0  0  0  0  0  0  0  0  0  0  0
   25.3810   20.2090    8.0800 N   0  0  0  0  0  0  0  0  0  0  0  0
   26.8910   18.8970    1.7660 N   0  0  0  0  0  0  0  0  0  0  0  0
   27.2800   19.0930    0.3750 C   0  0  2  0  0  0  0  0  0  0  0  0
   26.2080   18.5900   -0.5860 C   0  0  0  0  0  0  0  0  0  0  0  0
   25.9040   19.2380   -1.5870 O   0  0  0  0  0  0  0  0  0  0  0  0
   28.6090   18.3850    0.0880 C   0  0  0  0  0  0  0  0  0  0  0  0
   29.2080   18.7130   -1.2750 C   0  0  0  0  0  0  0  0  0  0  0  0
   30.4170   17.8420   -1.5990 C   0  0  0  0  0  0  0  0  0  0  0  0
   30.0370   16.5380   -2.1380 N   0  0  0  0  0  0  0  0  0  0  0  0
   30.3930   15.3720   -1.6060 C   0  0  0  0  0  0  0  0  0  0  0  0
   31.1440   15.3390   -0.5140 N   0  0  0  0  0  0  0  0  0  0  0  0
   29.9990   14.2370   -2.1680 N   0  0  0  0  0  0  0  0  0  0  0  0
   25.6310   17.4360   -0.2700 N   0  0  0  0  0  0  0  0  0  0  0  0
   24.7160   16.7560   -1.1820 C   0  0  2  0  0  0  0  0  0  0  0  0
   23.3560   17.4440   -1.3010 C   0  0  0  0  0  0  0  0  0  0  0  0
   22.6050   17.1870   -2.2420 O   0  0  0  0  0  0  0  0  0  0  0  0
   24.5270   15.3040   -0.7380 C   0  0  0  0  0  0  0  0  0  0  0  0
   25.8160   14.4810   -0.6610 C   0  0  0  0  0  0  0  0  0  0  0  0
   25.5140   13.0240   -0.3580 C   0  0  0  0  0  0  0  0  0  0  0  0
   26.6240   14.6110   -1.9510 C   0  0  0  0  0  0  0  0  0  0  0  0
   23.0450   18.3210   -0.3510 N   0  0  0  0  0  0  0  0  0  0  0  0
   21.7490   18.9920   -0.3250 C   0  0  2  0  0  0  0  0  0  0  0  0
   21.7380   20.3100   -1.0960 C   0  0  0  0  0  0  0  0  0  0  0  0
   20.6720   20.8410   -1.4070 O   0  0  0  0  0  0  0  0  0  0  0  0
   21.3160   19.2470    1.1230 C   0  0  0  0  0  0  0  0  0  0  0  0
   20.6310   18.1050    1.8770 C   0  0  0  0  0  0  0  0  0  0  0  0
   20.6170   18.3820    3.3720 C   0  0  0  0  0  0  0  0  0  0  0  0
   19.2150   17.9070    1.3630 C   0  0  0  0  0  0  0  0  0  0  0  0
   22.9180   20.8360   -1.4070 N   0  0  0  0  0  0  0  0  0  0  0  0
   23.0240   22.1710   -1.9910 C   0  0  2  0  0  0  0  0  0  0  0  0
   22.9910   22.1940   -3.5170 C   0  0  0  0  0  0  0  0  0  0  0  0
   22.3350   23.0520   -4.1120 O   0  0  0  0  0  0  0  0  0  0  0  0
   24.3050   22.8560   -1.5120 C   0  0  0  0  0  0  0  0  0  0  0  0
   24.4310   22.9640   -0.0060 C   0  0  0  0  0  0  0  0  0  0  0  0
   25.6520   23.7560    0.4140 C   0  0  0  0  0  0  0  0  0  0  0  0
   26.5400   23.2380    1.0910 O   0  0  0  0  0  0  0  0  0  0  0  0
   25.7010   25.0220    0.0170 N   0  0  0  0  0  0  0  0  0  0  0  0
   23.7070   21.2610   -4.1390 N   0  0  0  0  0  0  0  0  0  0  0  0
   23.9000   21.2560   -5.5900 C   0  0  2  0  0  0  0  0  0  0  0  0
   22.5870   21.2990   -6.3690 C   0  0  0  0  0  0  0  0  0  0  0  0
   22.2120   22.3390   -6.9110 O   0  0  0  0  0  0  0  0  0  0  0  0
   24.7030   20.0220   -6.0080 C   0  0  0  0  0  0  0  0  0  0  0  0
   25.7730   19.6520   -4.9980 C   0  0  0  0  0  0  0  0  0  0  0  0
   26.4080   20.5690   -4.4350 O   0  0  0  0  0  0  0  0  0  0  0  0
   25.9820   18.4420   -4.7690 O   0  0  0  0  0  0  0  0  0  0  0  0
  2  1  1  1
  3  2  1  0
  4  3  2  0
  5  2  1  0
  6  5  1  0
  7  6  1  0
  8  7  1  0
  9  8  1  0
 10  3  1  0
 11 10  1  1
 12 11  1  0
 13 12  2  0
 14 11  1  0
 15 14  1  0
 14 16  1  6
 17 15  1  0
 18 12  1  0
 19 18  1  0
 20 19  1  0
 21 20  2  0
 19 22  1  1
 23 22  1  0
 24 23  1  0
 25 23  1  0
 26 20  1  0
 27 26  1  0
 28 27  1  0
 29 28  2  0
 27 30  1  1
 31 30  1  0
 32 31  1  0
 33 31  2  0
 34 32  2  0
 35 34  1  0
 35 33  1  0
 36 28  1  0
 37 36  1  0
 38 37  1  0
 39 38  2  0
 37 40  1  6
 41 40  1  0
 42 41  1  0
 43 42  1  0
 44 43  1  0
 45 44  1  0
 46 44  2  0
 47 38  1  0
 48 47  1  0
 49 48  1  0
 50 49  2  0
 48 51  1  1
 52 51  1  0
 53 52  1  0
 54 52  1  0
 55 49  1  0
 56 55  1  0
 57 56  1  0
 58 57  2  0
 56 59  1  1
 60 59  1  0
 61 60  1  0
 62 60  1  0
 63 57  1  0
 64 63  1  0
 65 64  1  0
 66 65  2  0
 64 67  1  6
 68 67  1  0
 69 68  1  0
 70 69  2  0
 71 69  1  0
 72 65  1  0
 73 72  1  0
 74 73  1  0
 75 74  2  0
 73 76  1  6
 77 76  1  0
 78 77  2  0
 79 77  1  0
M  END
$$$$
4Q13
     RDKit          3D

 53 53  0  0  0  0  0  0  0  0999 V2000
   11.4620  -25.0190   -8.1650 N   0  0  0  0  0  0  0  0  0  0  0  0
   12.1400  -24.0270   -9.1040 C   0  0  2  0  0  0  0  0  0  0  0  0
   13.3090  -23.2410   -8.5020 C   0  0  0  0  0  0  0  0  0  0  0  0
   14.3730  -23.1160   -9.1190 O   0  0  0  0  0  0  0  0  0  0  0  0
   11.1970  -22.9790   -9.7310 C   0  0  2  0  0  0  0  0  0  0  0  0
    9.9190  -23.6320  -10.3020 C   0  0  0  0  0  0  0  0  0  0  0  0
   11.9630  -22.2320  -10.8200 C   0  0  0  0  0  0  0  0  0  0  0  0
    8.9850  -22.6850  -11.0410 C   0  0  0  0  0  0  0  0  0  0  0  0
   13.0840  -22.6900   -7.3120 N   0  0  0  0  0  0  0  0  0  0  0  0
   14.1290  -22.0040   -6.5700 C   0  0  2  0  0  0  0  0  0  0  0  0
   15.2750  -22.9680   -6.2830 C   0  0  0  0  0  0  0  0  0  0  0  0
   16.4910  -22.6510   -6.4890 O   0  0  0  0  0  0  0  0  0  0  0  0
   13.5640  -21.4380   -5.2530 C   0  0  0  0  0  0  0  0  0  0  0  0
   14.5580  -20.9050   -4.2020 C   0  0  0  0  0  0  0  0  0  0  0  0
   15.5070  -19.8400   -4.7600 C   0  0  0  0  0  0  0  0  0  0  0  0
   13.7970  -20.3940   -2.9700 C   0  0  0  0  0  0  0  0  0  0  0  0
   14.8610  -24.1370   -5.7900 N   0  0  0  0  0  0  0  0  0  0  0  0
   15.7560  -25.2680   -5.5650 C   0  0  2  0  0  0  0  0  0  0  0  0
   16.6460  -25.4850   -6.7680 C   0  0  0  0  0  0  0  0  0  0  0  0
   17.8900  -25.4700   -6.6590 O   0  0  0  0  0  0  0  0  0  0  0  0
   14.9350  -26.5210   -5.2500 C   0  0  0  0  0  0  0  0  0  0  0  0
   15.7530  -27.6350   -4.6610 C   0  0  0  0  0  0  0  0  0  0  0  0
   16.3660  -28.5680   -5.4240 N   0  0  0  0  0  0  0  0  0  0  0  0
   16.0770  -27.9280   -3.3390 C   0  0  0  0  0  0  0  0  0  0  0  0
   17.0270  -29.4240   -4.6340 C   0  0  0  0  0  0  0  0  0  0  0  0
   16.8520  -29.0310   -3.3550 N   0  0  0  0  0  0  0  0  0  0  0  0
   15.9870  -25.6310   -7.9220 N   0  0  0  0  0  0  0  0  0  0  0  0
   16.6180  -25.8170   -9.2350 C   0  0  2  0  0  0  0  0  0  0  0  0
   17.6860  -24.7600   -9.5800 C   0  0  0  0  0  0  0  0  0  0  0  0
   18.8430  -25.0990   -9.8440 O   0  0  0  0  0  0  0  0  0  0  0  0
   15.5200  -25.8790  -10.3180 C   0  0  0  0  0  0  0  0  0  0  0  0
   15.9700  -26.4560  -11.6560 C   0  0  0  0  0  0  0  0  0  0  0  0
   14.7980  -26.8790  -12.5470 C   0  0  0  0  0  0  0  0  0  0  0  0
   14.0890  -25.7480  -13.1510 N   0  0  0  0  0  0  0  0  0  0  0  0
   14.6760  -24.7580  -13.8150 C   0  0  0  0  0  0  0  0  0  0  0  0
   16.0000  -24.7240  -13.9550 N   0  0  0  0  0  0  0  0  0  0  0  0
   13.9340  -23.7860  -14.3350 N   0  0  0  0  0  0  0  0  0  0  0  0
   17.2760  -23.4880   -9.5380 N   0  0  0  0  0  0  0  0  0  0  0  0
   18.0760  -22.3390   -9.9620 C   0  0  2  0  0  0  0  0  0  0  0  0
   19.2920  -22.1250   -9.1010 C   0  0  0  0  0  0  0  0  0  0  0  0
   20.3130  -21.5880   -9.5400 O   0  0  0  0  0  0  0  0  0  0  0  0
   17.2000  -21.0780   -9.9310 C   0  0  0  0  0  0  0  0  0  0  0  0
   16.1090  -21.1620  -10.9940 C   0  0  0  0  0  0  0  0  0  0  0  0
   15.1390  -20.0090  -10.8790 C   0  0  0  0  0  0  0  0  0  0  0  0
   16.7860  -21.1410  -12.3520 C   0  0  0  0  0  0  0  0  0  0  0  0
   19.1290  -22.5000   -7.8400 N   0  0  0  0  0  0  0  0  0  0  0  0
   20.1700  -22.4360   -6.8470 C   0  0  2  0  0  0  0  0  0  0  0  0
   21.2100  -23.5650   -7.0520 C   0  0  0  0  0  0  0  0  0  0  0  0
   22.4130  -23.3160   -6.9990 O   0  0  0  0  0  0  0  0  0  0  0  0
   19.5150  -22.5590   -5.4740 C   0  0  0  0  0  0  0  0  0  0  0  0
   19.0800  -21.2940   -4.7510 C   0  0  0  0  0  0  0  0  0  0  0  0
   18.0760  -21.7230   -3.7100 C   0  0  0  0  0  0  0  0  0  0  0  0
   20.2800  -20.6140   -4.0830 C   0  0  0  0  0  0  0  0  0  0  0  0
  2  1  1  1
  3  2  1  0
  4  3  2  0
  5  2  1  0
  6  5  1  0
  5  7  1  6
  8  6  1  0
  9  3  1  0
 10  9  1  0
 11 10  1  0
 12 11  2  0
 10 13  1  1
 14 13  1  0
 15 14  1  0
 16 14  1  0
 17 11  1  0
 18 17  1  0
 19 18  1  0
 20 19  2  0
 18 21  1  6
 22 21  1  0
 23 22  1  0
 24 22  2  0
 25 23  2  0
 26 24  1  0
 26 25  1  0
 27 19  1  0
 28 27  1  0
 29 28  1  0
 30 29  2  0
 28 31  1  6
 32 31  1  0
 33 32  1  0
 34 33  1  0
 35 34  1  0
 36 35  1  0
 37 35  2  0
 38 29  1  0
 39 38  1  0
 40 39  1  0
 41 40  2  0
 39 42  1  1
 43 42  1  0
 44 43  1  0
 45 43  1  0
 46 40  1  0
 47 46  1  0
 48 47  1  0
 49 48  2  0
 47 50  1  1
 51 50  1  0
 52 51  1  0
 53 51  1  0
M  END
$$$$
6IAR
     RDKit          3D

 28 31  0  0  0  0  0  0  0  0999 V2000
   -1.3980  -35.8360   37.9300 C   0  0  0  0  0  0  0  0  0  0  0  0
   -1.9300  -34.5530   38.5230 C   0  0  1  0  0  0  0  0  0  0  0  0
   -1.2350  -34.4650   39.8790 C   0  0  0  0  0  0  0  0  0  0  0  0
   -3.3500  -30.3050   38.9310 C   0  0  0  0  0  0  0  0  0  0  0  0
   -2.2550  -29.3040   38.5810 C   0  0  0  0  0  0  0  0  0  0  0  0
   -1.0330  -29.6490   38.0360 C   0  0  1  0  0  0  0  0  0  0  0  0
   -0.0730  -28.6630   37.7650 C   0  0  0  0  0  0  0  0  0  0  0  0
   -0.2740  -27.3040   37.9550 C   0  0  0  0  0  0  0  0  0  0  0  0
   -1.4730  -26.9720   38.4680 C   0  0  0  0  0  0  0  0  0  0  0  0
   -2.4350  -27.9340   38.7680 C   0  0  0  0  0  0  0  0  0  0  0  0
   -3.4460  -27.1390   39.2600 C   0  0  0  0  0  0  0  0  0  0  0  0
    0.6130  -31.3590   38.4410 C   0  0  0  0  0  0  0  0  0  0  0  0
    0.7510  -31.1280   39.8100 C   0  0  0  0  0  0  0  0  0  0  0  0
    1.9830  -31.3630   40.4300 C   0  0  0  0  0  0  0  0  0  0  0  0
    3.0560  -31.8330   39.6810 C   0  0  0  0  0  0  0  0  0  0  0  0
    1.6830  -31.8510   37.7010 C   0  0  0  0  0  0  0  0  0  0  0  0
    6.1900  -31.8490   41.7630 C   0  0  1  0  0  0  0  0  0  0  0  0
    6.6030  -32.8870   41.1540 O   0  0  0  0  0  0  0  0  0  0  0  0
   -1.5600  -33.3640   37.5980 C   0  0  0  0  0  0  0  0  0  0  0  0
   -1.7320  -32.0790   38.3110 N   0  0  2  0  0  0  0  0  0  0  0  0
   -3.1350  -31.6060   38.1260 C   0  0  0  0  0  0  0  0  0  0  0  0
   -3.2190  -25.7980   39.3060 N   0  0  0  0  0  0  0  0  0  0  0  0
   -1.9780  -25.7460   38.8100 N   0  0  0  0  0  0  0  0  0  0  0  0
   -0.6800  -31.1020   37.7950 C   0  0  1  0  0  0  0  0  0  0  0  0
    2.8990  -32.0840   38.3240 C   0  0  0  0  0  0  0  0  0  0  0  0
    4.3640  -32.1100   40.3010 C   0  0  0  0  0  0  0  0  0  0  0  0
    4.8420  -31.3150   41.2700 C   0  0  0  0  0  0  0  0  0  0  0  0
    6.7200  -31.2580   42.7620 O   0  0  0  0  0  0  0  0  0  0  0  0
  2  1  1  6
  3  2  1  0
  5  4  1  0
  6  5  1  0
  6  7  1  1
  8  7  1  0
  9  8  1  0
 10  5  1  0
 10  9  1  0
 11 10  1  0
 13 12  1  0
 14 13  1  0
 15 14  1  0
 16 12  1  0
 17 18  1  1
 19  2  1  0
 20 19  1  6
 21 20  1  0
 21  4  1  0
 22 11  1  0
 23 22  1  0
 23  9  1  0
 24  6  1  0
 24 20  1  0
 24 12  1  1
 25 16  1  0
 25 15  1  0
 26 15  1  0
 27 26  1  0
 27 17  1  0
 28 17  1  0
M  CHG  2  20   1  28  -1
M  END
$$$$
8EV2
     RDKit          3D

 76 76  0  0  0  0  0  0  0  0999 V2000
  -12.5810   21.4530   21.4820 N   0  0  0  0  0  0  0  0  0  0  0  0
  -11.5310   20.4190   21.7210 C   0  0  2  0  0  0  0  0  0  0  0  0
  -11.3050   20.2100   23.2270 C   0  0  0  0  0  0  0  0  0  0  0  0
  -10.9660   21.1700   23.9420 O   0  0  0  0  0  0  0  0  0  0  0  0
  -10.2260   20.8120   21.0230 C   0  0  0  0  0  0  0  0  0  0  0  0
  -10.2430   20.7180   19.4980 C   0  0  0  0  0  0  0  0  0  0  0  0
   -9.3740   19.6020   18.9430 C   0  0  0  0  0  0  0  0  0  0  0  0
   -9.5430   19.3690   17.4530 C   0  0  0  0  0  0  0  0  0  0  0  0
   -9.3780   17.9360   17.0850 N   0  0  0  0  0  0  0  0  0  0  0  0
  -11.4710   18.9720   23.6870 N   0  0  0  0  0  0  0  0  0  0  0  0
  -11.0210   18.4960   25.0270 C   0  0  2  0  0  0  0  0  0  0  0  0
   -9.5360   18.8370   25.2180 C   0  0  0  0  0  0  0  0  0  0  0  0
   -9.1300   19.1460   26.3670 O   0  0  0  0  0  0  0  0  0  0  0  0
  -11.2310   16.9810   25.1870 C   0  0  2  0  0  0  0  0  0  0  0  0
  -12.6820   16.5510   24.9760 C   0  0  0  0  0  0  0  0  0  0  0  0
  -10.7030   16.5310   26.5420 C   0  0  0  0  0  0  0  0  0  0  0  0
  -12.8330   15.0770   24.6450 C   0  0  0  0  0  0  0  0  0  0  0  0
   -8.7440   18.7410   24.1470 N   0  0  0  0  0  0  0  0  0  0  0  0
   -7.2930   19.0320   24.1910 C   0  0  2  0  0  0  0  0  0  0  0  0
   -7.0620   20.4920   24.6100 C   0  0  0  0  0  0  0  0  0  0  0  0
   -6.1830   20.7260   25.4500 O   0  0  0  0  0  0  0  0  0  0  0  0
   -6.6920   18.7170   22.8210 C   0  0  0  0  0  0  0  0  0  0  0  0
   -5.1810   18.8860   22.7100 C   0  0  0  0  0  0  0  0  0  0  0  0
   -4.4710   18.2590   23.9060 C   0  0  0  0  0  0  0  0  0  0  0  0
   -4.6710   18.3140   21.3860 C   0  0  0  0  0  0  0  0  0  0  0  0
   -7.8240   21.4420   24.0690 N   0  0  0  0  0  0  0  0  0  0  0  0
   -7.7640   22.8750   24.4670 C   0  0  2  0  0  0  0  0  0  0  0  0
   -8.0520   23.0030   25.9620 C   0  0  0  0  0  0  0  0  0  0  0  0
   -7.3440   23.7630   26.6420 O   0  0  0  0  0  0  0  0  0  0  0  0
   -8.7670   23.7270   23.6810 C   0  0  0  0  0  0  0  0  0  0  0  0
   -8.4720   23.8290   22.2240 C   0  0  0  0  0  0  0  0  0  0  0  0
   -9.4670   24.0340   21.2830 N   0  0  0  0  0  0  0  0  0  0  0  0
   -7.3100   23.7500   21.5450 C   0  0  0  0  0  0  0  0  0  0  0  0
   -8.9210   24.0800   20.0810 C   0  0  0  0  0  0  0  0  0  0  0  0
   -7.5950   23.9030   20.2160 N   0  0  0  0  0  0  0  0  0  0  0  0
   -9.0700   22.3000   26.4510 N   0  0  0  0  0  0  0  0  0  0  0  0
   -9.5090   22.4280   27.8590 C   0  0  2  0  0  0  0  0  0  0  0  0
   -8.3360   22.0430   28.7590 C   0  0  0  0  0  0  0  0  0  0  0  0
   -7.9160   22.8900   29.5840 O   0  0  0  0  0  0  0  0  0  0  0  0
  -10.7330   21.5510   28.1380 C   0  0  0  0  0  0  0  0  0  0  0  0
  -11.3330   21.7420   29.5260 C   0  0  0  0  0  0  0  0  0  0  0  0
  -12.6000   20.9240   29.7100 C   0  0  0  0  0  0  0  0  0  0  0  0
  -12.3050   19.4950   29.7350 N   0  0  0  0  0  0  0  0  0  0  0  0
  -13.1390   18.5220   29.3640 C   0  0  0  0  0  0  0  0  0  0  0  0
  -14.3600   18.7990   28.9300 N   0  0  0  0  0  0  0  0  0  0  0  0
  -12.7410   17.2630   29.4300 N   0  0  0  0  0  0  0  0  0  0  0  0
   -7.8280   20.8190   28.5780 N   0  0  0  0  0  0  0  0  0  0  0  0
   -6.7860   20.1950   29.4310 C   0  0  2  0  0  0  0  0  0  0  0  0
   -5.4900   20.9940   29.3470 C   0  0  0  0  0  0  0  0  0  0  0  0
   -4.7420   20.9970   30.3390 O   0  0  0  0  0  0  0  0  0  0  0  0
   -6.5530   18.7640   28.9450 C   0  0  0  0  0  0  0  0  0  0  0  0
   -7.7080   17.8020   29.1990 C   0  0  0  0  0  0  0  0  0  0  0  0
   -7.5990   16.5940   28.2870 C   0  0  0  0  0  0  0  0  0  0  0  0
   -7.7460   17.3800   30.6670 C   0  0  0  0  0  0  0  0  0  0  0  0
   -5.2070   21.5960   28.1910 N   0  0  0  0  0  0  0  0  0  0  0  0
   -3.9890   22.4340   28.0080 C   0  0  2  0  0  0  0  0  0  0  0  0
   -4.1090   23.7430   28.8070 C   0  0  0  0  0  0  0  0  0  0  0  0
   -3.0750   24.3340   29.1210 O   0  0  0  0  0  0  0  0  0  0  0  0
   -3.7620   22.7060   26.5160 C   0  0  0  0  0  0  0  0  0  0  0  0
   -2.8810   21.6860   25.7980 C   0  0  0  0  0  0  0  0  0  0  0  0
   -2.8400   21.9540   24.3090 C   0  0  0  0  0  0  0  0  0  0  0  0
   -1.4850   21.6630   26.3910 C   0  0  0  0  0  0  0  0  0  0  0  0
   -5.3290   24.1900   29.0940 N   0  0  0  0  0  0  0  0  0  0  0  0
   -5.5980   25.4370   29.8610 C   0  0  2  0  0  0  0  0  0  0  0  0
   -5.8080   25.0800   31.3360 C   0  0  0  0  0  0  0  0  0  0  0  0
   -5.2280   25.7830   32.1950 O   0  0  0  0  0  0  0  0  0  0  0  0
   -6.7930   26.1610   29.2430 C   0  0  0  0  0  0  0  0  0  0  0  0
   -6.5240   26.6520   27.8230 C   0  0  0  0  0  0  0  0  0  0  0  0
   -7.7760   26.7820   26.9890 C   0  0  0  0  0  0  0  0  0  0  0  0
   -7.8090   27.5090   25.9970 O   0  0  0  0  0  0  0  0  0  0  0  0
   -8.8200   26.0660   27.3750 N   0  0  0  0  0  0  0  0  0  0  0  0
   -6.5920   24.0260   31.5990 N   0  0  0  0  0  0  0  0  0  0  0  0
   -6.7850   23.4110   32.9420 C   0  0  2  0  0  0  0  0  0  0  0  0
   -5.4330   22.8740   33.4290 C   0  0  0  0  0  0  0  0  0  0  0  0
   -4.5980   23.6400   33.9160 O   0  0  0  0  0  0  0  0  0  0  0  0
   -7.8820   22.3370   32.9000 C   0  0  0  0  0  0  0  0  0  0  0  0
  2  1  1  1
  3  2  1  0
  4  3  2  0
  5  2  1  0
  6  5  1  0
  7  6  1  0
  8  7  1  0
  9  8  1  0
 10  3  1  0
 11 10  1  6
 12 11  1  0
 13 12  2  0
 14 11  1  0
 15 14  1  0
 14 16  1  1
 17 15  1  0
 18 12  1  0
 19 18  1  0
 20 19  1  0
 21 20  2  0
 19 22  1  6
 23 22  1  0
 24 23  1  0
 25 23  1  0
 26 20  1  0
 27 26  1  0
 28 27  1  0
 29 28  2  0
 27 30  1  6
 31 30  1  0
 32 31  1  0
 33 31  2  0
 34 32  2  0
 35 34  1  0
 35 33  1  0
 36 28  1  0
 37 36  1  0
 38 37  1  0
 39 38  2  0
 37 40  1  6
 41 40  1  0
 42 41  1  0
 43 42  1  0
 44 43  1  0
 45 44  1  0
 46 44  2  0
 47 38  1  0
 48 47  1  0
 49 48  1  0
 50 49  2  0
 48 51  1  6
 52 51  1  0
 53 52  1  0
 54 52  1  0
 55 49  1  0
 56 55  1  0
 57 56  1  0
 58 57  2  0
 56 59  1  6
 60 59  1  0
 61 60  1  0
 62 60  1  0
 63 57  1  0
 64 63  1  0
 65 64  1  0
 66 65  2  0
 64 67  1  6
 68 67  1  0
 69 68  1  0
 70 69  2  0
 71 69  1  0
 72 65  1  0
 73 72  1  0
 74 73  1  0
 75 74  2  0
 73 76  1  6
M  END
$$$$
5EHJ
     RDKit          3D

 79 79  0  0  0  0  0  0  0  0999 V2000
  -10.2460   -2.0800    6.4850 N   0  0  0  0  0  0  0  0  0  0  0  0
   -9.8410   -0.6930    6.6810 C   0  0  2  0  0  0  0  0  0  0  0  0
  -10.8400    0.0630    7.5530 C   0  0  0  0  0  0  0  0  0  0  0  0
  -12.0070   -0.3170    7.6490 O   0  0  0  0  0  0  0  0  0  0  0  0
   -9.6780    0.0110    5.3320 C   0  0  0  0  0  0  0  0  0  0  0  0
   -8.5030   -0.4980    4.5130 C   0  0  0  0  0  0  0  0  0  0  0  0
   -8.3650    0.2560    3.2000 C   0  0  0  0  0  0  0  0  0  0  0  0
   -9.5620    0.0170    2.2960 C   0  0  0  0  0  0  0  0  0  0  0  0
   -9.3990    0.6890    0.9770 N   0  0  0  0  0  0  0  0  0  0  0  0
  -10.3700    1.1340    8.1860 N   0  0  0  0  0  0  0  0  0  0  0  0
  -11.1960    1.9220    9.0940 C   0  0  2  0  0  0  0  0  0  0  0  0
  -12.3780    2.5590    8.3720 C   0  0  0  0  0  0  0  0  0  0  0  0
  -13.5030    2.5390    8.8710 O   0  0  0  0  0  0  0  0  0  0  0  0
  -10.3720    3.0240    9.7850 C   0  0  2  0  0  0  0  0  0  0  0  0
   -9.1920    2.4080   10.5380 C   0  0  0  0  0  0  0  0  0  0  0  0
  -11.2460    3.8340   10.7330 C   0  0  0  0  0  0  0  0  0  0  0  0
   -8.3620    3.4150   11.2990 C   0  0  0  0  0  0  0  0  0  0  0  0
  -12.1150    3.1200    7.1950 N   0  0  0  0  0  0  0  0  0  0  0  0
  -13.1660    3.7210    6.3810 C   0  0  2  0  0  0  0  0  0  0  0  0
  -14.2340    2.6910    6.0300 C   0  0  0  0  0  0  0  0  0  0  0  0
  -15.4300    2.9820    6.0690 O   0  0  0  0  0  0  0  0  0  0  0  0
  -12.5770    4.3260    5.1060 C   0  0  0  0  0  0  0  0  0  0  0  0
  -13.5960    4.8660    4.1010 C   0  0  0  0  0  0  0  0  0  0  0  0
  -14.4740    5.9220    4.7510 C   0  0  0  0  0  0  0  0  0  0  0  0
  -12.9030    5.4230    2.8700 C   0  0  0  0  0  0  0  0  0  0  0  0
  -13.7890    1.4860    5.6930 N   0  0  0  0  0  0  0  0  0  0  0  0
  -14.6930    0.3870    5.3810 C   0  0  2  0  0  0  0  0  0  0  0  0
  -15.5040   -0.0140    6.6090 C   0  0  0  0  0  0  0  0  0  0  0  0
  -16.6550   -0.4380    6.4970 O   0  0  0  0  0  0  0  0  0  0  0  0
  -13.9070   -0.8120    4.8490 C   0  0  0  0  0  0  0  0  0  0  0  0
  -14.7630   -1.9810    4.4730 C   0  0  0  0  0  0  0  0  0  0  0  0
  -15.2010   -2.9100    5.3920 N   0  0  0  0  0  0  0  0  0  0  0  0
  -15.2560   -2.3760    3.2760 C   0  0  0  0  0  0  0  0  0  0  0  0
  -15.9300   -3.8240    4.7780 C   0  0  0  0  0  0  0  0  0  0  0  0
  -15.9780   -3.5250    3.4930 N   0  0  0  0  0  0  0  0  0  0  0  0
  -14.8940    0.1290    7.7820 N   0  0  0  0  0  0  0  0  0  0  0  0
  -15.5490   -0.2230    9.0350 C   0  0  2  0  0  0  0  0  0  0  0  0
  -16.6310    0.7870    9.3990 C   0  0  0  0  0  0  0  0  0  0  0  0
  -17.7610    0.4140    9.7130 O   0  0  0  0  0  0  0  0  0  0  0  0
  -14.5240   -0.3150   10.1680 C   0  0  0  0  0  0  0  0  0  0  0  0
  -15.0800   -0.9050   11.4550 C   0  0  0  0  0  0  0  0  0  0  0  0
  -14.1000   -0.7650   12.6110 C   0  0  0  0  0  0  0  0  0  0  0  0
  -14.1500    0.5620   13.2210 N   0  0  0  0  0  0  0  0  0  0  0  0
  -13.0810    1.3070   13.4820 C   0  0  0  0  0  0  0  0  0  0  0  0
  -13.2230    2.5000   14.0430 N   0  0  0  0  0  0  0  0  0  0  0  0
  -11.8680    0.8580   13.1880 N   0  0  0  0  0  0  0  0  0  0  0  0
  -16.2760    2.0670    9.3550 N   0  0  0  0  0  0  0  0  0  0  0  0
  -17.1900    3.1320    9.7510 C   0  0  2  0  0  0  0  0  0  0  0  0
  -18.3600    3.2670    8.7800 C   0  0  0  0  0  0  0  0  0  0  0  0
  -19.4800    3.5730    9.1880 O   0  0  0  0  0  0  0  0  0  0  0  0
  -16.4380    4.4590    9.8640 C   0  0  0  0  0  0  0  0  0  0  0  0
  -15.2610    4.4550   10.8430 C   0  0  0  0  0  0  0  0  0  0  0  0
  -14.6130    5.8280   10.9310 C   0  0  0  0  0  0  0  0  0  0  0  0
  -15.7030    3.9760   12.2190 C   0  0  0  0  0  0  0  0  0  0  0  0
  -18.0980    3.0360    7.4970 N   0  0  0  0  0  0  0  0  0  0  0  0
  -19.1510    3.0680    6.4870 C   0  0  2  0  0  0  0  0  0  0  0  0
  -20.1440    1.9310    6.6970 C   0  0  0  0  0  0  0  0  0  0  0  0
  -21.3320    2.0670    6.4030 O   0  0  0  0  0  0  0  0  0  0  0  0
  -18.5560    2.9870    5.0790 C   0  0  0  0  0  0  0  0  0  0  0  0
  -18.0050    4.2780    4.4700 C   0  0  0  0  0  0  0  0  0  0  0  0
  -17.2480    3.9770    3.1880 C   0  0  0  0  0  0  0  0  0  0  0  0
  -19.1320    5.2620    4.2050 C   0  0  0  0  0  0  0  0  0  0  0  0
  -19.6480    0.8120    7.2130 N   0  0  0  0  0  0  0  0  0  0  0  0
  -20.4730   -0.3730    7.4100 C   0  0  2  0  0  0  0  0  0  0  0  0
  -21.3270   -0.2560    8.6700 C   0  0  0  0  0  0  0  0  0  0  0  0
  -22.4800   -0.6860    8.6900 O   0  0  0  0  0  0  0  0  0  0  0  0
  -19.5930   -1.6220    7.4800 C   0  0  0  0  0  0  0  0  0  0  0  0
  -20.3330   -2.9230    7.2290 C   0  0  0  0  0  0  0  0  0  0  0  0
  -19.4020   -4.1170    7.1950 C   0  0  0  0  0  0  0  0  0  0  0  0
  -18.3830   -4.1440    7.8850 O   0  0  0  0  0  0  0  0  0  0  0  0
  -19.7410   -5.1100    6.3810 N   0  0  0  0  0  0  0  0  0  0  0  0
  -20.7560    0.3290    9.7180 N   0  0  0  0  0  0  0  0  0  0  0  0
  -21.4770    0.5230   10.9720 C   0  0  2  0  0  0  0  0  0  0  0  0
  -22.5560    1.5910   10.8240 C   0  0  0  0  0  0  0  0  0  0  0  0
  -23.7280    1.3460   11.1140 O   0  0  0  0  0  0  0  0  0  0  0  0
  -20.5100    0.9030   12.0960 C   0  0  0  0  0  0  0  0  0  0  0  0
  -19.5430   -0.2160   12.4390 C   0  0  0  0  0  0  0  0  0  0  0  0
  -19.9180   -1.3970   12.2820 O   0  0  0  0  0  0  0  0  0  0  0  0
  -18.4090    0.0850   12.8670 O   0  0  0  0  0  0  0  0  0  0  0  0
  2  1  1  6
  3  2  1  0
  4  3  2  0
  5  2  1  0
  6  5  1  0
  7  6  1  0
  8  7  1  0
  9  8  1  0
 10  3  1  0
 11 10  1  6
 12 11  1  0
 13 12  2  0
 14 11  1  0
 15 14  1  0
 14 16  1  1
 17 15  1  0
 18 12  1  0
 19 18  1  0
 20 19  1  0
 21 20  2  0
 19 22  1  6
 23 22  1  0
 24 23  1  0
 25 23  1  0
 26 20  1  0
 27 26  1  0
 28 27  1  0
 29 28  2  0
 27 30  1  1
 31 30  1  0
 32 31  1  0
 33 31  2  0
 34 32  2  0
 35 34  1  0
 35 33  1  0
 36 28  1  0
 37 36  1  0
 38 37  1  0
 39 38  2  0
 37 40  1  1
 41 40  1  0
 42 41  1  0
 43 42  1  0
 44 43  1  0
 45 44  1  0
 46 44  2  0
 47 38  1  0
 48 47  1  0
 49 48  1  0
 50 49  2  0
 48 51  1  6
 52 51  1  0
 53 52  1  0
 54 52  1  0
 55 49  1  0
 56 55  1  0
 57 56  1  0
 58 57  2  0
 56 59  1  6
 60 59  1  0
 61 60  1  0
 62 60  1  0
 63 57  1  0
 64 63  1  0
 65 64  1  0
 66 65  2  0
 64 67  1  1
 68 67  1  0
 69 68  1  0
 70 69  2  0
 71 69  1  0
 72 65  1  0
 73 72  1  0
 74 73  1  0
 75 74  2  0
 73 76  1  1
 77 76  1  0
 78 77  2  0
 79 77  1  0
M  END
$$$$
5GS4
     RDKit          3D

 77 77  0  0  0  0  0  0  0  0999 V2000
  -26.4520   -2.6980   26.2880 N   0  0  0  0  0  0  0  0  0  0  0  0
  -26.9270   -3.8180   25.5210 C   0  0  2  0  0  0  0  0  0  0  0  0
  -25.7880   -4.8360   25.2750 C   0  0  0  0  0  0  0  0  0  0  0  0
  -24.6990   -4.6070   25.6770 O   0  0  0  0  0  0  0  0  0  0  0  0
  -27.4880   -3.3450   24.1560 C   0  0  0  0  0  0  0  0  0  0  0  0
  -26.5000   -2.4400   23.3860 C   0  0  0  0  0  0  0  0  0  0  0  0
  -26.6760   -2.5590   21.8420 C   0  0  0  0  0  0  0  0  0  0  0  0
  -28.0690   -2.7700   21.4370 N   0  0  0  0  0  0  0  0  0  0  0  0
  -28.6200   -2.1900   20.2100 C   0  0  0  0  0  0  0  0  0  0  0  0
  -29.8270   -2.4160   19.8980 N   0  0  0  0  0  0  0  0  0  0  0  0
  -27.9140   -1.4630   19.4600 N   0  0  0  0  0  0  0  0  0  0  0  0
  -26.0710   -6.0960   24.5250 N   0  0  0  0  0  0  0  0  0  0  0  0
  -25.0370   -7.1100   24.2480 C   0  0  2  0  0  0  0  0  0  0  0  0
  -24.0470   -6.5760   23.1950 C   0  0  0  0  0  0  0  0  0  0  0  0
  -24.4520   -6.2650   22.1270 O   0  0  0  0  0  0  0  0  0  0  0  0
  -25.7310   -8.3230   23.6530 C   0  0  0  0  0  0  0  0  0  0  0  0
  -24.7890   -9.5300   23.6930 C   0  0  0  0  0  0  0  0  0  0  0  0
  -24.0210   -9.6950   24.5750 O   0  0  0  0  0  0  0  0  0  0  0  0
  -24.8440  -10.4240   22.6770 N   0  0  0  0  0  0  0  0  0  0  0  0
  -23.9800  -11.6010   22.6340 C   0  0  2  0  0  0  0  0  0  0  0  0
  -22.5490  -11.2120   22.3580 C   0  0  0  0  0  0  0  0  0  0  0  0
  -21.5940  -11.6480   22.9470 O   0  0  0  0  0  0  0  0  0  0  0  0
  -24.5120  -12.6680   21.5930 C   0  0  2  0  0  0  0  0  0  0  0  0
  -25.8680  -13.3400   21.9840 C   0  0  0  0  0  0  0  0  0  0  0  0
  -23.4770  -13.7980   21.3020 C   0  0  0  0  0  0  0  0  0  0  0  0
  -26.5450  -14.1810   20.8810 C   0  0  0  0  0  0  0  0  0  0  0  0
  -22.3100  -10.1590   21.3370 N   0  0  0  0  0  0  0  0  0  0  0  0
  -21.0100   -9.6700   20.9620 C   0  0  2  0  0  0  0  0  0  0  0  0
  -20.2380   -9.1690   22.1920 C   0  0  0  0  0  0  0  0  0  0  0  0
  -19.1420   -9.5430   22.4690 O   0  0  0  0  0  0  0  0  0  0  0  0
  -21.2600   -8.4470   20.0730 C   0  0  0  0  0  0  0  0  0  0  0  0
  -20.2900   -8.2590   18.9070 C   0  0  0  0  0  0  0  0  0  0  0  0
  -20.3740   -6.8060   18.4270 C   0  0  0  0  0  0  0  0  0  0  0  0
  -18.8450   -8.6090   19.2830 C   0  0  0  0  0  0  0  0  0  0  0  0
  -20.9870   -8.1530   22.9360 N   0  0  0  0  0  0  0  0  0  0  0  0
  -20.5700   -7.4500   24.1320 C   0  0  1  0  0  0  0  0  0  0  0  0
  -21.8310   -6.7090   24.6620 C   0  0  0  0  0  0  0  0  0  0  0  0
  -22.5910   -6.3700   23.4220 N   0  0  0  0  0  0  0  0  0  0  0  0
  -20.0400   -8.5030   25.1380 C   0  0  0  0  0  0  0  0  0  0  0  0
  -18.9310   -8.4510   25.5660 O   0  0  0  0  0  0  0  0  0  0  0  0
  -21.0100   -9.6020   25.4930 N   0  0  0  0  0  0  0  0  0  0  0  0
  -20.6620  -10.6680   26.4240 C   0  0  2  0  0  0  0  0  0  0  0  0
  -19.4700  -11.4750   25.9160 C   0  0  0  0  0  0  0  0  0  0  0  0
  -18.5730  -11.7440   26.6300 O   0  0  0  0  0  0  0  0  0  0  0  0
  -21.8280  -11.6570   26.5590 C   0  0  0  0  0  0  0  0  0  0  0  0
  -21.7920  -12.2830   27.9920 C   0  0  0  0  0  0  0  0  0  0  0  0
  -22.2680  -13.7640   27.9870 C   0  0  0  0  0  0  0  0  0  0  0  0
  -23.5640  -13.8880   27.2740 N   0  0  0  0  0  0  0  0  0  0  0  0
  -23.7970  -14.7730   26.1360 C   0  0  0  0  0  0  0  0  0  0  0  0
  -24.9650  -14.7170   25.6380 N   0  0  0  0  0  0  0  0  0  0  0  0
  -22.7970  -15.3190   25.5820 N   0  0  0  0  0  0  0  0  0  0  0  0
  -19.4080  -11.9880   24.5100 N   0  0  0  0  0  0  0  0  0  0  0  0
  -18.2270  -12.7930   24.1670 C   0  0  2  0  0  0  0  0  0  0  0  0
  -16.9460  -11.9600   24.2110 C   0  0  0  0  0  0  0  0  0  0  0  0
  -15.9170  -12.4800   24.4980 O   0  0  0  0  0  0  0  0  0  0  0  0
  -18.3970  -13.3440   22.7770 C   0  0  0  0  0  0  0  0  0  0  0  0
  -19.2820  -14.5960   22.7180 C   0  0  0  0  0  0  0  0  0  0  0  0
  -20.0160  -14.9350   24.0050 C   0  0  0  0  0  0  0  0  0  0  0  0
  -20.3130  -14.3240   21.6420 C   0  0  0  0  0  0  0  0  0  0  0  0
  -17.0050  -10.5310   23.8920 N   0  0  0  0  0  0  0  0  0  0  0  0
  -15.7650   -9.7620   23.9430 C   0  0  2  0  0  0  0  0  0  0  0  0
  -15.2890   -9.6290   25.4010 C   0  0  0  0  0  0  0  0  0  0  0  0
  -14.1170   -9.7050   25.6430 O   0  0  0  0  0  0  0  0  0  0  0  0
  -16.0020   -8.3740   23.3560 C   0  0  0  0  0  0  0  0  0  0  0  0
  -16.1230   -8.4520   21.8330 C   0  0  0  0  0  0  0  0  0  0  0  0
  -16.4650   -7.0520   21.3010 C   0  0  0  0  0  0  0  0  0  0  0  0
  -14.7750   -8.8590   21.2480 C   0  0  0  0  0  0  0  0  0  0  0  0
  -16.2940   -9.4280   26.4730 N   0  0  0  0  0  0  0  0  0  0  0  0
  -15.8530   -9.2750   27.8680 C   0  0  2  0  0  0  0  0  0  0  0  0
  -15.2690  -10.5420   28.4700 C   0  0  0  0  0  0  0  0  0  0  0  0
  -14.3200  -10.4740   29.1660 O   0  0  0  0  0  0  0  0  0  0  0  0
  -17.0260   -8.8270   28.7670 C   0  0  0  0  0  0  0  0  0  0  0  0
  -17.1960   -7.3090   28.7950 C   0  0  0  0  0  0  0  0  0  0  0  0
  -18.6670   -7.0080   29.1140 C   0  0  0  0  0  0  0  0  0  0  0  0
  -19.4380   -6.7470   28.2530 O   0  0  0  0  0  0  0  0  0  0  0  0
  -19.1660   -7.0300   30.4820 N   0  0  0  0  0  0  0  0  0  0  0  0
  -16.0120  -11.7850   28.3670 N   0  0  0  0  0  0  0  0  0  0  0  0
  2  1  1  6
  3  2  1  0
  4  3  2  0
  5  2  1  0
  6  5  1  0
  7  6  1  0
  8  7  1  0
  9  8  1  0
 10  9  1  0
 11  9  2  0
 12  3  1  0
 13 12  1  6
 14 13  1  0
 15 14  1  0
 16 13  1  0
 17 16  1  0
 18 17  1  0
 19 17  1  0
 20 19  1  6
 21 20  1  0
 22 21  2  0
 23 20  1  0
 24 23  1  0
 23 25  1  1
 26 24  1  0
 27 21  1  0
 28 27  1  0
 29 28  1  0
 30 29  2  0
 28 31  1  6
 32 31  1  0
 33 32  1  0
 34 32  1  0
 35 29  1  0
 36 35  1  0
 37 36  1  0
 38 37  1  0
 38 14  1  0
 36 39  1  1
 40 39  1  0
 41 39  1  0
 42 41  1  0
 43 42  1  0
 44 43  2  0
 42 45  1  6
 46 45  1  0
 47 46  1  0
 48 47  1  0
 49 48  1  0
 50 49  1  0
 51 49  2  0
 52 43  1  0
 53 52  1  0
 54 53  1  0
 55 54  2  0
 53 56  1  6
 57 56  1  0
 58 57  1  0
 59 57  1  0
 60 54  1  0
 61 60  1  0
 62 61  1  0
 63 62  2  0
 61 64  1  1
 65 64  1  0
 66 65  1  0
 67 65  1  0
 68 62  1  0
 69 68  1  0
 70 69  1  0
 71 70  2  0
 69 72  1  1
 73 72  1  0
 74 73  1  0
 75 74  2  0
 76 74  1  0
 77 70  1  0
M  CHG  2  10   1  50   1
M  END
$$$$
5KRK
     RDKit          3D

 71 71  0  0  0  0  0  0  0  0999 V2000
   31.7150   19.7730    6.4220 N   0  0  0  0  0  0  0  0  0  0  0  0
   30.6030   19.6790    7.3600 C   0  0  2  0  0  0  0  0  0  0  0  0
   29.8920   18.3350    7.2400 C   0  0  0  0  0  0  0  0  0  0  0  0
   30.0410   17.4650    8.0980 O   0  0  0  0  0  0  0  0  0  0  0  0
   29.6120   20.8220    7.1310 C   0  0  0  0  0  0  0  0  0  0  0  0
   29.1200   18.1720    6.1710 N   0  0  0  0  0  0  0  0  0  0  0  0
   28.3850   16.9350    5.9380 C   0  0  2  0  0  0  0  0  0  0  0  0
   28.1400   16.7050    4.4500 C   0  0  0  0  0  0  0  0  0  0  0  0
   27.9410   17.6520    3.6900 O   0  0  0  0  0  0  0  0  0  0  0  0
   27.0530   16.9540    6.6910 C   0  0  0  0  0  0  0  0  0  0  0  0
   28.1590   15.4400    4.0410 N   0  0  0  0  0  0  0  0  0  0  0  0
   27.8970   15.0770    2.6530 C   0  0  2  0  0  0  0  0  0  0  0  0
   26.4370   15.3450    2.3060 C   0  0  0  0  0  0  0  0  0  0  0  0
   26.1100   15.7030    1.1730 O   0  0  0  0  0  0  0  0  0  0  0  0
   28.2290   13.5960    2.3860 C   0  0  2  0  0  0  0  0  0  0  0  0
   29.6280   13.2620    2.9070 C   0  0  0  0  0  0  0  0  0  0  0  0
   28.1200   13.2750    0.9030 C   0  0  0  0  0  0  0  0  0  0  0  0
   30.0160   11.8160    2.7200 C   0  0  0  0  0  0  0  0  0  0  0  0
   25.5660   15.1760    3.2960 N   0  0  0  0  0  0  0  0  0  0  0  0
   24.1390   15.4200    3.1280 C   0  0  2  0  0  0  0  0  0  0  0  0
   23.8680   16.8730    2.7460 C   0  0  0  0  0  0  0  0  0  0  0  0
   22.9050   17.1680    2.0380 O   0  0  0  0  0  0  0  0  0  0  0  0
   23.3860   15.0570    4.4110 C   0  0  0  0  0  0  0  0  0  0  0  0
   21.8640   15.2080    4.4090 C   0  0  0  0  0  0  0  0  0  0  0  0
   21.2500   14.4250    3.2640 C   0  0  0  0  0  0  0  0  0  0  0  0
   21.2840   14.7510    5.7360 C   0  0  0  0  0  0  0  0  0  0  0  0
   24.7260   17.7740    3.2150 N   0  0  0  0  0  0  0  0  0  0  0  0
   24.6190   19.1910    2.8830 C   0  0  2  0  0  0  0  0  0  0  0  0
   24.7800   19.4320    1.3860 C   0  0  0  0  0  0  0  0  0  0  0  0
   23.9540   20.0970    0.7620 O   0  0  0  0  0  0  0  0  0  0  0  0
   25.6650   20.0040    3.6500 C   0  0  0  0  0  0  0  0  0  0  0  0
   25.4070   20.0930    5.1200 C   0  0  0  0  0  0  0  0  0  0  0  0
   26.4050   20.3450    6.0390 N   0  0  0  0  0  0  0  0  0  0  0  0
   24.2630   19.9740    5.8350 C   0  0  0  0  0  0  0  0  0  0  0  0
   25.8880   20.3710    7.2530 C   0  0  0  0  0  0  0  0  0  0  0  0
   24.5890   20.1490    7.1570 N   0  0  0  0  0  0  0  0  0  0  0  0
   25.8510   18.8860    0.8190 N   0  0  0  0  0  0  0  0  0  0  0  0
   26.1740   19.0980   -0.5880 C   0  0  2  0  0  0  0  0  0  0  0  0
   25.1230   18.4970   -1.5160 C   0  0  0  0  0  0  0  0  0  0  0  0
   24.7460   19.1060   -2.5170 O   0  0  0  0  0  0  0  0  0  0  0  0
   27.5500   18.5110   -0.9110 C   0  0  0  0  0  0  0  0  0  0  0  0
   24.6510   17.3020   -1.1780 N   0  0  0  0  0  0  0  0  0  0  0  0
   23.6720   16.6090   -2.0080 C   0  0  2  0  0  0  0  0  0  0  0  0
   22.3040   17.2810   -1.9310 C   0  0  0  0  0  0  0  0  0  0  0  0
   21.4850   17.1440   -2.8400 O   0  0  0  0  0  0  0  0  0  0  0  0
   23.5660   15.1360   -1.6030 C   0  0  0  0  0  0  0  0  0  0  0  0
   24.5500   14.1640   -2.2650 C   0  0  0  0  0  0  0  0  0  0  0  0
   25.9950   14.4820   -1.9010 C   0  0  0  0  0  0  0  0  0  0  0  0
   24.2160   12.7230   -1.9090 C   0  0  0  0  0  0  0  0  0  0  0  0
   22.0620   18.0080   -0.8440 N   0  0  0  0  0  0  0  0  0  0  0  0
   20.8140   18.7450   -0.6810 C   0  0  2  0  0  0  0  0  0  0  0  0
   20.8520   20.0780   -1.4230 C   0  0  0  0  0  0  0  0  0  0  0  0
   19.8120   20.6810   -1.6860 O   0  0  0  0  0  0  0  0  0  0  0  0
   20.5150   18.9780    0.8010 C   0  0  0  0  0  0  0  0  0  0  0  0
   19.7050   17.8880    1.5060 C   0  0  0  0  0  0  0  0  0  0  0  0
   19.6830   18.1180    3.0060 C   0  0  0  0  0  0  0  0  0  0  0  0
   18.2890   17.8440    0.9550 C   0  0  0  0  0  0  0  0  0  0  0  0
   22.0530   20.5330   -1.7610 N   0  0  0  0  0  0  0  0  0  0  0  0
   22.2150   21.7930   -2.4760 C   0  0  2  0  0  0  0  0  0  0  0  0
   22.4480   21.5590   -3.9660 C   0  0  0  0  0  0  0  0  0  0  0  0
   22.0760   22.3860   -4.7990 O   0  0  0  0  0  0  0  0  0  0  0  0
   23.3700   22.6020   -1.8810 C   0  0  0  0  0  0  0  0  0  0  0  0
   23.1350   23.0530   -0.4470 C   0  0  0  0  0  0  0  0  0  0  0  0
   24.3140   23.8160    0.1270 C   0  0  0  0  0  0  0  0  0  0  0  0
   25.3980   23.8360   -0.4550 O   0  0  0  0  0  0  0  0  0  0  0  0
   24.1060   24.4510    1.2740 N   0  0  0  0  0  0  0  0  0  0  0  0
   23.0630   20.4270   -4.2940 N   0  0  0  0  0  0  0  0  0  0  0  0
   23.3410   20.0780   -5.6830 C   0  0  2  0  0  0  0  0  0  0  0  0
   22.1540   19.3620   -6.3200 C   0  0  0  0  0  0  0  0  0  0  0  0
   21.7080   19.7260   -7.4080 O   0  0  0  0  0  0  0  0  0  0  0  0
   24.5940   19.2050   -5.7760 C   0  0  0  0  0  0  0  0  0  0  0  0
  2  1  1  0
  3  2  1  0
  4  3  2  0
  2  5  1  6
  6  3  1  0
  7  6  1  0
  8  7  1  0
  9  8  2  0
  7 10  1  1
 11  8  1  0
 12 11  1  1
 13 12  1  0
 14 13  2  0
 15 12  1  0
 16 15  1  0
 15 17  1  6
 18 16  1  0
 19 13  1  0
 20 19  1  0
 21 20  1  0
 22 21  2  0
 20 23  1  1
 24 23  1  0
 25 24  1  0
 26 24  1  0
 27 21  1  0
 28 27  1  0
 29 28  1  0
 30 29  2  0
 28 31  1  1
 32 31  1  0
 33 32  1  0
 34 32  2  0
 35 33  2  0
 36 35  1  0
 36 34  1  0
 37 29  1  0
 38 37  1  0
 39 38  1  0
 40 39  2  0
 38 41  1  6
 42 39  1  0
 43 42  1  0
 44 43  1  0
 45 44  2  0
 43 46  1  1
 47 46  1  0
 48 47  1  0
 49 47  1  0
 50 44  1  0
 51 50  1  0
 52 51  1  0
 53 52  2  0
 51 54  1  1
 55 54  1  0
 56 55  1  0
 57 55  1  0
 58 52  1  0
 59 58  1  0
 60 59  1  0
 61 60  2  0
 59 62  1  1
 63 62  1  0
 64 63  1  0
 65 64  2  0
 66 64  1  0
 67 60  1  0
 68 67  1  0
 69 68  1  0
 70 69  2  0
 68 71  1  1
M  END
$$$$
5DXG
     RDKit          3D

 12 11  0  0  0  0  0  0  0  0999 V2000
    8.9310   -9.4940   17.7030 N   0  0  0  0  0  0  0  0  0  0  0  0
    9.6800  -10.0410   16.5780 C   0  0  2  0  0  0  0  0  0  0  0  0
   10.9840  -10.6860   17.0400 C   0  0  0  0  0  0  0  0  0  0  0  0
   11.7120  -11.2600   16.2340 O   0  0  0  0  0  0  0  0  0  0  0  0
    9.9650   -8.9550   15.5400 C   0  0  0  0  0  0  0  0  0  0  0  0
   11.2820  -10.5810   18.3340 N   0  0  0  0  0  0  0  0  0  0  0  0
   12.3520  -11.3900   18.9070 C   0  0  2  0  0  0  0  0  0  0  0  0
   11.8290  -12.7880   19.2160 C   0  0  0  0  0  0  0  0  0  0  0  0
   11.2920  -13.4740   18.3460 O   0  0  0  0  0  0  0  0  0  0  0  0
   12.9350  -10.8030   20.2050 C   0  0  2  0  0  0  0  0  0  0  0  0
   13.4530   -9.4850   19.9720 O   0  0  0  0  0  0  0  0  0  0  0  0
   14.0500  -11.7100   20.7180 C   0  0  0  0  0  0  0  0  0  0  0  0
  2  1  1  0
  3  2  1  0
  4  3  2  0
  2  5  1  6
  6  3  1  0
  7  6  1  1
  8  7  1  0
  9  8  2  0
 10  7  1  0
 11 10  1  0
 10 12  1  6
M  END
$$$$
5DXP
     RDKit          3D

 69 69  0  0  0  0  0  0  0  0999 V2000
    9.2140  -16.7960   36.3740 N   0  0  0  0  0  0  0  0  0  0  0  0
    8.9960  -15.3950   36.0300 C   0  0  2  0  0  0  0  0  0  0  0  0
    8.0890  -14.7120   37.0490 C   0  0  0  0  0  0  0  0  0  0  0  0
    6.9610  -15.1490   37.2790 O   0  0  0  0  0  0  0  0  0  0  0  0
    8.3990  -15.2730   34.6280 C   0  0  0  0  0  0  0  0  0  0  0  0
    8.5900  -13.6400   37.6540 N   0  0  0  0  0  0  0  0  0  0  0  0
    7.8470  -12.9040   38.6710 C   0  0  2  0  0  0  0  0  0  0  0  0
    6.5640  -12.2970   38.1080 C   0  0  0  0  0  0  0  0  0  0  0  0
    5.5220  -12.3110   38.7660 O   0  0  0  0  0  0  0  0  0  0  0  0
    8.7150  -11.7890   39.2940 C   0  0  2  0  0  0  0  0  0  0  0  0
    9.7890  -12.4020   40.1940 C   0  0  0  0  0  0  0  0  0  0  0  0
    7.8650  -10.8120   40.0910 C   0  0  0  0  0  0  0  0  0  0  0  0
   10.5370  -11.3890   41.0230 C   0  0  0  0  0  0  0  0  0  0  0  0
    6.6450  -11.7840   36.8830 N   0  0  0  0  0  0  0  0  0  0  0  0
    5.4990  -11.1670   36.2200 C   0  0  2  0  0  0  0  0  0  0  0  0
    4.3010  -12.1150   36.1510 C   0  0  0  0  0  0  0  0  0  0  0  0
    3.1540  -11.6790   36.2250 O   0  0  0  0  0  0  0  0  0  0  0  0
    5.8860  -10.7040   34.8130 C   0  0  0  0  0  0  0  0  0  0  0  0
    4.8400   -9.9240   34.0150 C   0  0  0  0  0  0  0  0  0  0  0  0
    4.3130   -8.7560   34.8250 C   0  0  0  0  0  0  0  0  0  0  0  0
    5.4300   -9.4370   32.7020 C   0  0  0  0  0  0  0  0  0  0  0  0
    4.5760  -13.4100   36.0180 N   0  0  0  0  0  0  0  0  0  0  0  0
    3.5250  -14.4230   35.9930 C   0  0  2  0  0  0  0  0  0  0  0  0
    2.7320  -14.4520   37.2960 C   0  0  0  0  0  0  0  0  0  0  0  0
    1.5010  -14.4680   37.2820 O   0  0  0  0  0  0  0  0  0  0  0  0
    4.1200  -15.8060   35.7220 C   0  0  0  0  0  0  0  0  0  0  0  0
    4.3290  -16.1010   34.2700 C   0  0  0  0  0  0  0  0  0  0  0  0
    5.4960  -16.6470   33.7810 N   0  0  0  0  0  0  0  0  0  0  0  0
    3.5140  -15.9360   33.2010 C   0  0  0  0  0  0  0  0  0  0  0  0
    5.3950  -16.7980   32.4730 C   0  0  0  0  0  0  0  0  0  0  0  0
    4.2010  -16.3740   32.0960 N   0  0  0  0  0  0  0  0  0  0  0  0
    3.4460  -14.4590   38.4170 N   0  0  0  0  0  0  0  0  0  0  0  0
    2.8150  -14.5070   39.7320 C   0  0  2  0  0  0  0  0  0  0  0  0
    1.9910  -13.2530   40.0020 C   0  0  0  0  0  0  0  0  0  0  0  0
    0.8810  -13.3290   40.5270 O   0  0  0  0  0  0  0  0  0  0  0  0
    3.8700  -14.6860   40.8250 C   0  0  0  0  0  0  0  0  0  0  0  0
    2.5380  -12.1000   39.6350 N   0  0  0  0  0  0  0  0  0  0  0  0
    1.8570  -10.8290   39.8520 C   0  0  2  0  0  0  0  0  0  0  0  0
    0.6300  -10.6840   38.9530 C   0  0  0  0  0  0  0  0  0  0  0  0
   -0.3040   -9.9530   39.2810 O   0  0  0  0  0  0  0  0  0  0  0  0
    2.8200   -9.6640   39.6170 C   0  0  0  0  0  0  0  0  0  0  0  0
    4.0640   -9.6170   40.5080 C   0  0  0  0  0  0  0  0  0  0  0  0
    4.9730   -8.4700   40.0990 C   0  0  0  0  0  0  0  0  0  0  0  0
    3.6740   -9.4960   41.9720 C   0  0  0  0  0  0  0  0  0  0  0  0
    0.6360  -11.3880   37.8250 N   0  0  0  0  0  0  0  0  0  0  0  0
   -0.4480  -11.2910   36.8490 C   0  0  2  0  0  0  0  0  0  0  0  0
   -1.6480  -12.1680   37.1950 C   0  0  0  0  0  0  0  0  0  0  0  0
   -2.5990  -12.2590   36.4190 O   0  0  0  0  0  0  0  0  0  0  0  0
    0.0610  -11.6540   35.4530 C   0  0  0  0  0  0  0  0  0  0  0  0
    0.5330  -10.4830   34.5920 C   0  0  0  0  0  0  0  0  0  0  0  0
    1.1510  -10.9820   33.2990 C   0  0  0  0  0  0  0  0  0  0  0  0
   -0.6300   -9.5490   34.3040 C   0  0  0  0  0  0  0  0  0  0  0  0
   -1.6080  -12.8110   38.3560 N   0  0  0  0  0  0  0  0  0  0  0  0
   -2.7110  -13.6700   38.7730 C   0  0  2  0  0  0  0  0  0  0  0  0
   -3.7980  -12.8530   39.4690 C   0  0  0  0  0  0  0  0  0  0  0  0
   -3.6810  -11.6320   39.5830 O   0  0  0  0  0  0  0  0  0  0  0  0
   -2.1970  -14.7940   39.6730 C   0  0  0  0  0  0  0  0  0  0  0  0
   -1.1780  -15.6850   38.9730 C   0  0  0  0  0  0  0  0  0  0  0  0
   -0.7910  -16.9020   39.7870 C   0  0  0  0  0  0  0  0  0  0  0  0
   -1.2350  -17.0730   40.9220 O   0  0  0  0  0  0  0  0  0  0  0  0
    0.0410  -17.7600   39.2070 N   0  0  0  0  0  0  0  0  0  0  0  0
   -4.8490  -13.5350   39.9220 N   0  0  0  0  0  0  0  0  0  0  0  0
   -6.0630  -12.8870   40.4240 C   0  0  2  0  0  0  0  0  0  0  0  0
   -6.6890  -11.9980   39.3530 C   0  0  0  0  0  0  0  0  0  0  0  0
   -7.6610  -12.3830   38.7030 O   0  0  0  0  0  0  0  0  0  0  0  0
   -5.7770  -12.0650   41.6870 C   0  0  0  0  0  0  0  0  0  0  0  0
   -5.6540  -12.9240   42.9270 C   0  0  0  0  0  0  0  0  0  0  0  0
   -6.6850  -13.1550   43.5940 O   0  0  0  0  0  0  0  0  0  0  0  0
   -4.5280  -13.3660   43.2370 O   0  0  0  0  0  0  0  0  0  0  0  0
  2  1  1  0
  3  2  1  0
  4  3  2  0
  2  5  1  6
  6  3  1  0
  7  6  1  6
  8  7  1  0
  9  8  2  0
 10  7  1  0
 11 10  1  0
 10 12  1  1
 13 11  1  0
 14  8  1  0
 15 14  1  0
 16 15  1  0
 17 16  2  0
 15 18  1  6
 19 18  1  0
 20 19  1  0
 21 19  1  0
 22 16  1  0
 23 22  1  0
 24 23  1  0
 25 24  2  0
 23 26  1  1
 27 26  1  0
 28 27  1  0
 29 27  2  0
 30 28  2  0
 31 30  1  0
 31 29  1  0
 32 24  1  0
 33 32  1  0
 34 33  1  0
 35 34  2  0
 33 36  1  1
 37 34  1  0
 38 37  1  0
 39 38  1  0
 40 39  2  0
 38 41  1  6
 42 41  1  0
 43 42  1  0
 44 42  1  0
 45 39  1  0
 46 45  1  0
 47 46  1  0
 48 47  2  0
 46 49  1  6
 50 49  1  0
 51 50  1  0
 52 50  1  0
 53 47  1  0
 54 53  1  0
 55 54  1  0
 56 55  2  0
 54 57  1  1
 58 57  1  0
 59 58  1  0
 60 59  2  0
 61 59  1  0
 62 55  1  0
 63 62  1  0
 64 63  1  0
 65 64  2  0
 63 66  1  1
 67 66  1  0
 68 67  2  0
 69 67  1  0
M  END
$$$$
6HKF
     RDKit          3D

 42 43  0  0  0  0  0  0  0  0999 V2000
   12.7840    8.0280   14.4070 N   0  0  0  0  0  0  0  0  0  0  0  0
   13.6760    9.1820   14.4520 C   0  0  2  0  0  0  0  0  0  0  0  0
   13.0100   10.4120   13.8320 C   0  0  0  0  0  0  0  0  0  0  0  0
   12.1330   10.2820   12.9750 O   0  0  0  0  0  0  0  0  0  0  0  0
   14.9980    8.8670   13.7390 C   0  0  0  0  0  0  0  0  0  0  0  0
   14.8290    8.3280   12.3440 C   0  0  0  0  0  0  0  0  0  0  0  0
   14.7140    9.1860   11.2600 C   0  0  0  0  0  0  0  0  0  0  0  0
   14.7980    6.9610   12.1150 C   0  0  0  0  0  0  0  0  0  0  0  0
   14.5610    8.6890    9.9760 C   0  0  0  0  0  0  0  0  0  0  0  0
   14.6450    6.4590   10.8330 C   0  0  0  0  0  0  0  0  0  0  0  0
   14.5270    7.3240    9.7630 C   0  0  0  0  0  0  0  0  0  0  0  0
   13.4160   11.6020   14.2650 N   0  0  0  0  0  0  0  0  0  0  0  0
   12.8510   12.8280   13.6950 C   0  0  2  0  0  0  0  0  0  0  0  0
   13.4520   13.1430   12.3320 C   0  0  0  0  0  0  0  0  0  0  0  0
   14.5200   12.6550   11.9560 O   0  0  0  0  0  0  0  0  0  0  0  0
   13.2320   13.8970   14.7240 C   0  0  0  0  0  0  0  0  0  0  0  0
   14.5250   13.3980   15.2850 C   0  0  0  0  0  0  0  0  0  0  0  0
   14.3830   11.8930   15.3400 C   0  0  0  0  0  0  0  0  0  0  0  0
   12.7370   13.9820   11.5880 N   0  0  0  0  0  0  0  0  0  0  0  0
   13.1460   14.3410   10.2350 C   0  0  2  0  0  0  0  0  0  0  0  0
   14.2770   15.3710   10.2220 C   0  0  0  0  0  0  0  0  0  0  0  0
   14.2490   16.3500   10.9680 O   0  0  0  0  0  0  0  0  0  0  0  0
   11.9510   14.8640    9.4480 C   0  0  0  0  0  0  0  0  0  0  0  0
   15.2740   15.1210    9.3730 N   0  0  0  0  0  0  0  0  0  0  0  0
   16.3600   16.0580    9.0850 C   0  0  1  0  0  0  0  0  0  0  0  0
   17.6400   15.6540    9.8120 C   0  0  1  0  0  0  0  0  0  0  0  0
   17.4970   15.9120   11.3160 C   0  0  0  0  0  0  0  0  0  0  0  0
   17.8090   14.2660    9.5270 O   0  0  0  0  0  0  0  0  0  0  0  0
   19.2930   13.7260    9.8680 P   0  0  0  0  0  0  0  0  0  0  0  0
   19.5100   12.4010    8.9850 O   0  0  0  0  0  0  0  0  0  0  0  0
   19.3670   13.3660   11.3020 O   0  0  0  0  0  0  0  0  0  0  0  0
   20.4220   14.8100    9.4950 O   0  0  0  0  0  0  0  0  0  0  0  0
   16.5900   16.0700    7.5790 C   0  0  0  0  0  0  0  0  0  0  0  0
   16.2670   15.0940    6.8990 O   0  0  0  0  0  0  0  0  0  0  0  0
   17.1340   17.1640    7.0490 N   0  0  0  0  0  0  0  0  0  0  0  0
   17.4280   17.2420    5.6160 C   0  0  2  0  0  0  0  0  0  0  0  0
   18.8930   17.5670    5.3720 C   0  0  0  0  0  0  0  0  0  0  0  0
   19.6500   17.8730    6.2940 O   0  0  0  0  0  0  0  0  0  0  0  0
   16.5380   18.2800    4.8990 C   0  0  0  0  0  0  0  0  0  0  0  0
   15.0810   17.8930    4.9870 C   0  0  0  0  0  0  0  0  0  0  0  0
   16.7640   19.6660    5.4760 C   0  0  0  0  0  0  0  0  0  0  0  0
   19.3450   17.5350    4.2250 O   0  0  0  0  0  0  0  0  0  0  0  0
  2  1  1  6
  3  2  1  0
  4  3  2  0
  5  2  1  0
  6  5  1  0
  7  6  2  0
  8  6  1  0
  9  7  1  0
 10  8  2  0
 11 10  1  0
 11  9  2  0
 12  3  1  0
 13 12  1  0
 13 14  1  6
 15 14  2  0
 16 13  1  0
 17 16  1  0
 18 17  1  0
 18 12  1  0
 19 14  1  0
 20 19  1  0
 21 20  1  0
 22 21  2  0
 20 23  1  6
 24 21  1  0
 25 24  1  6
 26 25  1  0
 26 27  1  1
 28 26  1  0
 29 28  1  0
 30 29  1  0
 31 29  1  0
 32 29  1  0
 33 25  1  0
 34 33  1  0
 35 33  1  0
 36 35  1  1
 37 36  1  0
 38 37  2  0
 39 36  1  0
 40 39  1  0
 41 39  1  0
 42 37  1  0
M  END
$$$$
5DMF
     RDKit          3D

 78 78  0  0  0  0  0  0  0  0999 V2000
   -4.2340  -43.6640  -33.9580 N   0  0  0  0  0  0  0  0  0  0  0  0
   -5.5160  -43.0000  -34.1530 C   0  0  2  0  0  0  0  0  0  0  0  0
   -5.5490  -41.6510  -33.4420 C   0  0  0  0  0  0  0  0  0  0  0  0
   -4.7730  -41.4130  -32.5170 O   0  0  0  0  0  0  0  0  0  0  0  0
   -6.6650  -43.8880  -33.6720 C   0  0  0  0  0  0  0  0  0  0  0  0
   -6.4670  -40.7870  -33.8700 N   0  0  0  0  0  0  0  0  0  0  0  0
   -6.4850  -39.3800  -33.4640 C   0  0  2  0  0  0  0  0  0  0  0  0
   -5.5530  -38.5770  -34.3690 C   0  0  0  0  0  0  0  0  0  0  0  0
   -4.3480  -38.8280  -34.4110 O   0  0  0  0  0  0  0  0  0  0  0  0
   -6.0670  -39.2040  -31.9990 C   0  0  0  0  0  0  0  0  0  0  0  0
   -7.2070  -38.9730  -31.0200 C   0  0  0  0  0  0  0  0  0  0  0  0
   -6.6510  -38.7400  -29.6220 C   0  0  0  0  0  0  0  0  0  0  0  0
   -7.7530  -38.6400  -28.5830 C   0  0  0  0  0  0  0  0  0  0  0  0
   -7.1960  -38.5390  -27.2050 N   0  0  0  0  0  0  0  0  0  0  0  0
   -6.1190  -37.6100  -35.0860 N   0  0  0  0  0  0  0  0  0  0  0  0
   -5.3440  -36.7820  -36.0060 C   0  0  2  0  0  0  0  0  0  0  0  0
   -4.1920  -36.0790  -35.2990 C   0  0  0  0  0  0  0  0  0  0  0  0
   -3.0440  -36.1620  -35.7390 O   0  0  0  0  0  0  0  0  0  0  0  0
   -6.2210  -35.7430  -36.7420 C   0  0  2  0  0  0  0  0  0  0  0  0
   -7.3320  -36.4470  -37.5210 C   0  0  0  0  0  0  0  0  0  0  0  0
   -5.3790  -34.9150  -37.6930 C   0  0  0  0  0  0  0  0  0  0  0  0
   -8.3150  -35.5150  -38.2120 C   0  0  0  0  0  0  0  0  0  0  0  0
   -4.5060  -35.3840  -34.2090 N   0  0  0  0  0  0  0  0  0  0  0  0
   -3.4880  -34.7140  -33.4060 C   0  0  2  0  0  0  0  0  0  0  0  0
   -2.3440  -35.6690  -33.0930 C   0  0  0  0  0  0  0  0  0  0  0  0
   -1.1710  -35.2960  -33.1410 O   0  0  0  0  0  0  0  0  0  0  0  0
   -4.0980  -34.1850  -32.1050 C   0  0  0  0  0  0  0  0  0  0  0  0
   -3.1190  -33.6320  -31.0700 C   0  0  0  0  0  0  0  0  0  0  0  0
   -2.2600  -32.5250  -31.6680 C   0  0  0  0  0  0  0  0  0  0  0  0
   -3.8580  -33.1320  -29.8340 C   0  0  0  0  0  0  0  0  0  0  0  0
   -2.7090  -36.9030  -32.7670 N   0  0  0  0  0  0  0  0  0  0  0  0
   -1.7500  -37.9470  -32.4530 C   0  0  2  0  0  0  0  0  0  0  0  0
   -0.8590  -38.2310  -33.6530 C   0  0  0  0  0  0  0  0  0  0  0  0
    0.3650  -38.2730  -33.5360 O   0  0  0  0  0  0  0  0  0  0  0  0
   -2.4980  -39.2150  -32.0520 C   0  0  0  0  0  0  0  0  0  0  0  0
   -1.6120  -40.3060  -31.5430 C   0  0  0  0  0  0  0  0  0  0  0  0
   -0.8910  -41.1330  -32.3780 N   0  0  0  0  0  0  0  0  0  0  0  0
   -1.3390  -40.7150  -30.2830 C   0  0  0  0  0  0  0  0  0  0  0  0
   -0.2080  -41.9980  -31.6550 C   0  0  0  0  0  0  0  0  0  0  0  0
   -0.4620  -41.7680  -30.3770 N   0  0  0  0  0  0  0  0  0  0  0  0
   -1.4850  -38.4320  -34.8060 N   0  0  0  0  0  0  0  0  0  0  0  0
   -0.7550  -38.7100  -36.0360 C   0  0  2  0  0  0  0  0  0  0  0  0
    0.2110  -37.5820  -36.3900 C   0  0  0  0  0  0  0  0  0  0  0  0
    1.3960  -37.8190  -36.6250 O   0  0  0  0  0  0  0  0  0  0  0  0
   -1.7300  -38.9450  -37.1920 C   0  0  0  0  0  0  0  0  0  0  0  0
   -0.3050  -36.3570  -36.4270 N   0  0  0  0  0  0  0  0  0  0  0  0
    0.4940  -35.1940  -36.8000 C   0  0  2  0  0  0  0  0  0  0  0  0
    1.7080  -35.0060  -35.8940 C   0  0  0  0  0  0  0  0  0  0  0  0
    2.7320  -34.4720  -36.3180 O   0  0  0  0  0  0  0  0  0  0  0  0
   -0.3670  -33.9280  -36.7920 C   0  0  0  0  0  0  0  0  0  0  0  0
   -1.5620  -33.9310  -37.7450 C   0  0  0  0  0  0  0  0  0  0  0  0
   -2.2550  -32.5790  -37.7380 C   0  0  0  0  0  0  0  0  0  0  0  0
   -1.1150  -34.2960  -39.1480 C   0  0  0  0  0  0  0  0  0  0  0  0
    1.5870  -35.4470  -34.6470 N   0  0  0  0  0  0  0  0  0  0  0  0
    2.6690  -35.3020  -33.6780 C   0  0  2  0  0  0  0  0  0  0  0  0
    3.8010  -36.2980  -33.9160 C   0  0  0  0  0  0  0  0  0  0  0  0
    4.8420  -36.2310  -33.2630 O   0  0  0  0  0  0  0  0  0  0  0  0
    2.1320  -35.4450  -32.2510 C   0  0  0  0  0  0  0  0  0  0  0  0
    1.3860  -34.2350  -31.6860 C   0  0  0  0  0  0  0  0  0  0  0  0
    0.6410  -34.6010  -30.4130 C   0  0  0  0  0  0  0  0  0  0  0  0
    2.3520  -33.0870  -31.4380 C   0  0  0  0  0  0  0  0  0  0  0  0
    3.5970  -37.2170  -34.8540 N   0  0  0  0  0  0  0  0  0  0  0  0
    4.5990  -38.2360  -35.1520 C   0  0  2  0  0  0  0  0  0  0  0  0
    5.4560  -37.8870  -36.3660 C   0  0  0  0  0  0  0  0  0  0  0  0
    6.6810  -37.9970  -36.3130 O   0  0  0  0  0  0  0  0  0  0  0  0
    3.9410  -39.6040  -35.3520 C   0  0  0  0  0  0  0  0  0  0  0  0
    3.4850  -40.2650  -34.0640 C   0  0  0  0  0  0  0  0  0  0  0  0
    2.9990  -41.6840  -34.2770 C   0  0  0  0  0  0  0  0  0  0  0  0
    2.4660  -42.0180  -35.3350 O   0  0  0  0  0  0  0  0  0  0  0  0
    3.1870  -42.5320  -33.2710 N   0  0  0  0  0  0  0  0  0  0  0  0
    4.8050  -37.4700  -37.4490 N   0  0  0  0  0  0  0  0  0  0  0  0
    5.4840  -37.1680  -38.7110 C   0  0  2  0  0  0  0  0  0  0  0  0
    6.9580  -36.8110  -38.5320 C   0  0  0  0  0  0  0  0  0  0  0  0
    7.8380  -37.6440  -38.7510 O   0  0  0  0  0  0  0  0  0  0  0  0
    4.7640  -36.0400  -39.4550 C   0  0  0  0  0  0  0  0  0  0  0  0
    3.3590  -36.4220  -39.8750 C   0  0  0  0  0  0  0  0  0  0  0  0
    3.0500  -37.6320  -39.8970 O   0  0  0  0  0  0  0  0  0  0  0  0
    2.5650  -35.5110  -40.1910 O   0  0  0  0  0  0  0  0  0  0  0  0
  2  1  1  0
  3  2  1  0
  4  3  2  0
  2  5  1  1
  6  3  1  0
  7  6  1  0
  8  7  1  0
  9  8  2  0
  7 10  1  1
 11 10  1  0
 12 11  1  0
 13 12  1  0
 14 13  1  0
 15  8  1  0
 16 15  1  1
 17 16  1  0
 18 17  2  0
 19 16  1  0
 20 19  1  0
 19 21  1  6
 22 20  1  0
 23 17  1  0
 24 23  1  0
 25 24  1  0
 26 25  2  0
 24 27  1  1
 28 27  1  0
 29 28  1  0
 30 28  1  0
 31 25  1  0
 32 31  1  0
 33 32  1  0
 34 33  2  0
 32 35  1  6
 36 35  1  0
 37 36  1  0
 38 36  2  0
 39 37  2  0
 40 39  1  0
 40 38  1  0
 41 33  1  0
 42 41  1  0
 43 42  1  0
 44 43  2  0
 42 45  1  6
 46 43  1  0
 47 46  1  0
 48 47  1  0
 49 48  2  0
 47 50  1  1
 51 50  1  0
 52 51  1  0
 53 51  1  0
 54 48  1  0
 55 54  1  0
 56 55  1  0
 57 56  2  0
 55 58  1  1
 59 58  1  0
 60 59  1  0
 61 59  1  0
 62 56  1  0
 63 62  1  0
 64 63  1  0
 65 64  2  0
 63 66  1  6
 67 66  1  0
 68 67  1  0
 69 68  2  0
 70 68  1  0
 71 64  1  0
 72 71  1  0
 73 72  1  0
 74 73  2  0
 72 75  1  1
 76 75  1  0
 77 76  2  0
 78 76  1  0
M  END
$$$$
8ANF
     RDKit          3D

 42 43  0  0  0  0  0  0  0  0999 V2000
   28.1290   -7.9420   14.4660 N   0  0  0  0  0  0  0  0  0  0  0  0
   27.1710   -9.0880   14.4250 C   0  0  2  0  0  0  0  0  0  0  0  0
   27.8250  -10.3090   13.7830 C   0  0  0  0  0  0  0  0  0  0  0  0
   28.6670  -10.1850   12.8960 O   0  0  0  0  0  0  0  0  0  0  0  0
   25.8690   -8.7170   13.6920 C   0  0  0  0  0  0  0  0  0  0  0  0
   26.0760   -8.0500   12.3630 C   0  0  0  0  0  0  0  0  0  0  0  0
   26.1960   -8.8050   11.1960 C   0  0  0  0  0  0  0  0  0  0  0  0
   26.1470   -6.6620   12.2700 C   0  0  0  0  0  0  0  0  0  0  0  0
   26.3980   -8.1830    9.9680 C   0  0  0  0  0  0  0  0  0  0  0  0
   26.3550   -6.0400   11.0480 C   0  0  0  0  0  0  0  0  0  0  0  0
   26.4750   -6.8010    9.8960 C   0  0  0  0  0  0  0  0  0  0  0  0
   27.4850  -11.5320   14.2330 N   0  0  0  0  0  0  0  0  0  0  0  0
   28.0760  -12.7390   13.6670 C   0  0  2  0  0  0  0  0  0  0  0  0
   27.4870  -13.0710   12.2880 C   0  0  0  0  0  0  0  0  0  0  0  0
   26.4120  -12.6100   11.9410 O   0  0  0  0  0  0  0  0  0  0  0  0
   27.7560  -13.7990   14.7230 C   0  0  0  0  0  0  0  0  0  0  0  0
   26.4430  -13.3420   15.3040 C   0  0  0  0  0  0  0  0  0  0  0  0
   26.5270  -11.8290   15.3090 C   0  0  0  0  0  0  0  0  0  0  0  0
   28.2030  -13.8970   11.5410 N   0  0  0  0  0  0  0  0  0  0  0  0
   27.8280  -14.2820   10.2090 C   0  0  2  0  0  0  0  0  0  0  0  0
   26.7050  -15.3140   10.2520 C   0  0  0  0  0  0  0  0  0  0  0  0
   26.7690  -16.2980   10.9800 O   0  0  0  0  0  0  0  0  0  0  0  0
   29.0320  -14.8730    9.4880 C   0  0  0  0  0  0  0  0  0  0  0  0
   25.7070  -15.0870    9.4110 N   0  0  0  0  0  0  0  0  0  0  0  0
   24.6260  -16.0400    9.0920 C   0  0  1  0  0  0  0  0  0  0  0  0
   23.3490  -15.7240    9.8750 C   0  0  1  0  0  0  0  0  0  0  0  0
   23.5280  -15.8730   11.3710 C   0  0  0  0  0  0  0  0  0  0  0  0
   23.0100  -14.3350    9.5430 O   0  0  0  0  0  0  0  0  0  0  0  0
   21.5780  -13.6880    9.9070 P   0  0  0  0  0  0  0  0  0  0  0  0
   21.5350  -12.4640    9.0190 O   0  0  0  0  0  0  0  0  0  0  0  0
   21.6090  -13.3610   11.3840 O   0  0  0  0  0  0  0  0  0  0  0  0
   20.5180  -14.7340    9.6180 O   0  0  0  0  0  0  0  0  0  0  0  0
   24.3880  -16.0350    7.5840 C   0  0  0  0  0  0  0  0  0  0  0  0
   24.7460  -15.0530    6.9260 O   0  0  0  0  0  0  0  0  0  0  0  0
   23.8100  -17.1170    7.0740 N   0  0  0  0  0  0  0  0  0  0  0  0
   23.4850  -17.2160    5.6630 C   0  0  2  0  0  0  0  0  0  0  0  0
   22.0470  -17.4900    5.3660 C   0  0  0  0  0  0  0  0  0  0  0  0
   21.3100  -17.9370    6.2380 O   0  0  0  0  0  0  0  0  0  0  0  0
   24.3510  -18.2700    4.9650 C   0  0  0  0  0  0  0  0  0  0  0  0
   25.8050  -17.8590    5.0600 C   0  0  0  0  0  0  0  0  0  0  0  0
   24.1060  -19.6700    5.5190 C   0  0  0  0  0  0  0  0  0  0  0  0
   21.6470  -17.3040    4.1930 O   0  0  0  0  0  0  0  0  0  0  0  0
  2  1  1  6
  3  2  1  0
  4  3  2  0
  5  2  1  0
  6  5  1  0
  7  6  2  0
  8  6  1  0
  9  7  1  0
 10  8  2  0
 11  9  2  0
 11 10  1  0
 12  3  1  0
 13 12  1  0
 13 14  1  6
 15 14  2  0
 16 13  1  0
 17 16  1  0
 18 17  1  0
 18 12  1  0
 19 14  1  0
 20 19  1  0
 21 20  1  0
 22 21  2  0
 20 23  1  1
 24 21  1  0
 25 24  1  6
 26 25  1  0
 26 27  1  1
 28 26  1  0
 29 28  1  0
 30 29  1  0
 31 29  1  0
 32 29  1  0
 33 25  1  0
 34 33  1  0
 35 33  1  0
 36 35  1  1
 37 36  1  0
 38 37  2  0
 39 36  1  0
 40 39  1  0
 41 39  1  0
 42 37  1  0
M  END
$$$$
5DL4
     RDKit          3D

 30 33  0  0  0  0  0  0  0  0999 V2000
   16.3080   -0.5010   -0.0010 O   0  0  0  0  0  0  0  0  0  0  0  0
   16.9340   -0.9550    1.1750 C   0  0  0  0  0  0  0  0  0  0  0  0
   18.2790   -1.2830    1.1560 C   0  0  0  0  0  0  0  0  0  0  0  0
   18.8950   -1.7290    2.3140 C   0  0  0  0  0  0  0  0  0  0  0  0
   18.1740   -1.8560    3.4920 C   0  0  0  0  0  0  0  0  0  0  0  0
   18.8970   -2.3420    4.7350 C   0  0  0  0  0  0  0  0  0  0  0  0
   20.3280   -1.8980    4.9160 C   0  0  0  0  0  0  0  0  0  0  0  0
   21.3430   -2.8290    5.0610 C   0  0  0  0  0  0  0  0  0  0  0  0
   22.6510   -2.4000    5.2220 C   0  0  0  0  0  0  0  0  0  0  0  0
   22.9390   -1.0440    5.2330 C   0  0  0  0  0  0  0  0  0  0  0  0
   24.2650   -0.6100    5.3960 O   0  0  0  0  0  0  0  0  0  0  0  0
   21.9240   -0.1160    5.0850 C   0  0  0  0  0  0  0  0  0  0  0  0
   20.6190   -0.5430    4.9240 C   0  0  0  0  0  0  0  0  0  0  0  0
   18.3090   -3.1480    5.6550 C   0  0  2  0  0  0  0  0  0  0  0  0
   18.9320   -3.3180    7.0280 C   0  0  0  0  0  0  0  0  0  0  0  0
   19.2880   -2.2060    7.7750 C   0  0  0  0  0  0  0  0  0  0  0  0
   19.8570   -2.3630    9.0310 C   0  0  0  0  0  0  0  0  0  0  0  0
   20.0690   -3.6320    9.5440 C   0  0  0  0  0  0  0  0  0  0  0  0
   19.7180   -4.7470    8.8010 C   0  0  0  0  0  0  0  0  0  0  0  0
   19.9310   -6.0540    9.3230 N   0  0  0  0  0  0  0  0  0  0  0  0
   21.1320   -6.4140   10.0000 C   0  0  0  0  0  0  0  0  0  0  0  0
   21.1150   -7.4550   10.9190 C   0  0  0  0  0  0  0  0  0  0  0  0
   22.2780   -7.8170   11.5810 C   0  0  0  0  0  0  0  0  0  0  0  0
   23.4620   -7.1430   11.3250 C   0  0  0  0  0  0  0  0  0  0  0  0
   23.4820   -6.1050   10.4060 C   0  0  0  0  0  0  0  0  0  0  0  0
   22.3190   -5.7430    9.7430 C   0  0  0  0  0  0  0  0  0  0  0  0
   19.1470   -4.5890    7.5430 C   0  0  0  0  0  0  0  0  0  0  0  0
   17.1440   -4.0330    5.2700 C   0  0  0  0  0  0  0  0  0  0  0  0
   16.8290   -1.5210    3.5100 C   0  0  0  0  0  0  0  0  0  0  0  0
   16.2100   -1.0760    2.3500 C   0  0  0  0  0  0  0  0  0  0  0  0
  2  1  1  0
  3  2  1  0
  4  3  1  0
  5  4  1  0
  6  5  1  0
  7  6  1  0
  8  7  1  0
  9  8  1  0
 10  9  1  0
 11 10  1  0
 12 10  1  0
 13  7  1  0
 13 12  1  0
 14  6  1  0
 15 14  1  0
 16 15  1  0
 17 16  1  0
 18 17  1  0
 19 18  1  0
 20 19  1  0
 21 20  1  0
 22 21  1  0
 23 22  1  0
 24 23  1  0
 25 24  1  0
 26 21  1  0
 26 25  1  0
 27 19  1  0
 27 15  1  0
 14 28  1  6
 29  5  1  0
 30 29  1  0
 30  2  1  0
M  END
$$$$
6HKB
     RDKit          3D

 42 43  0  0  0  0  0  0  0  0999 V2000
   12.8980    7.9380   14.5440 N   0  0  0  0  0  0  0  0  0  0  0  0
   13.7710    9.1080   14.5990 C   0  0  2  0  0  0  0  0  0  0  0  0
   13.0960   10.3400   13.9920 C   0  0  0  0  0  0  0  0  0  0  0  0
   12.2280   10.2220   13.1210 O   0  0  0  0  0  0  0  0  0  0  0  0
   15.1050    8.8240   13.8850 C   0  0  0  0  0  0  0  0  0  0  0  0
   14.9610    8.2100   12.5180 C   0  0  0  0  0  0  0  0  0  0  0  0
   14.8030    9.0070   11.3920 C   0  0  0  0  0  0  0  0  0  0  0  0
   15.0150    6.8310   12.3540 C   0  0  0  0  0  0  0  0  0  0  0  0
   14.6760    8.4350   10.1300 C   0  0  0  0  0  0  0  0  0  0  0  0
   14.8840    6.2580   11.0970 C   0  0  0  0  0  0  0  0  0  0  0  0
   14.7200    7.0580    9.9850 C   0  0  0  0  0  0  0  0  0  0  0  0
   13.4850   11.5230   14.4530 N   0  0  0  0  0  0  0  0  0  0  0  0
   12.9200   12.7500   13.8870 C   0  0  2  0  0  0  0  0  0  0  0  0
   13.5170   13.0650   12.5230 C   0  0  0  0  0  0  0  0  0  0  0  0
   14.5860   12.5800   12.1380 O   0  0  0  0  0  0  0  0  0  0  0  0
   13.2960   13.8150   14.9180 C   0  0  0  0  0  0  0  0  0  0  0  0
   14.6090   13.3140   15.4760 C   0  0  0  0  0  0  0  0  0  0  0  0
   14.4340   11.8080   15.5480 C   0  0  0  0  0  0  0  0  0  0  0  0
   12.7990   13.9040   11.7840 N   0  0  0  0  0  0  0  0  0  0  0  0
   13.1830   14.2310   10.4270 C   0  0  2  0  0  0  0  0  0  0  0  0
   14.3100   15.2520   10.3980 C   0  0  0  0  0  0  0  0  0  0  0  0
   14.2610   16.2410   11.1280 O   0  0  0  0  0  0  0  0  0  0  0  0
   11.9810   14.7570    9.6510 C   0  0  0  0  0  0  0  0  0  0  0  0
   15.3280   14.9790    9.5840 N   0  0  0  0  0  0  0  0  0  0  0  0
   16.3870   15.9410    9.2620 C   0  0  1  0  0  0  0  0  0  0  0  0
   17.7120   15.6010    9.9930 C   0  0  1  0  0  0  0  0  0  0  0  0
   17.5520   15.8010   11.5040 C   0  0  0  0  0  0  0  0  0  0  0  0
   17.9550   14.2320    9.6750 O   0  0  0  0  0  0  0  0  0  0  0  0
   19.4200   13.6430   10.0420 P   0  0  0  0  0  0  0  0  0  0  0  0
   19.5100   12.3560    9.0920 O   0  0  0  0  0  0  0  0  0  0  0  0
   19.4230   13.2410   11.4640 O   0  0  0  0  0  0  0  0  0  0  0  0
   20.5560   14.7100    9.7250 O   0  0  0  0  0  0  0  0  0  0  0  0
   16.5920   15.9310    7.7540 C   0  0  0  0  0  0  0  0  0  0  0  0
   16.1850   14.9760    7.0680 O   0  0  0  0  0  0  0  0  0  0  0  0
   17.1890   16.9960    7.2240 N   0  0  0  0  0  0  0  0  0  0  0  0
   17.4680   17.0810    5.7950 C   0  0  2  0  0  0  0  0  0  0  0  0
   18.9050   17.4560    5.5160 C   0  0  0  0  0  0  0  0  0  0  0  0
   19.6800   17.8430    6.4010 O   0  0  0  0  0  0  0  0  0  0  0  0
   16.5600   18.0910    5.0730 C   0  0  0  0  0  0  0  0  0  0  0  0
   15.0960   17.7210    5.2060 C   0  0  0  0  0  0  0  0  0  0  0  0
   16.8360   19.5100    5.5600 C   0  0  0  0  0  0  0  0  0  0  0  0
   19.3000   17.3930    4.3430 O   0  0  0  0  0  0  0  0  0  0  0  0
  2  1  1  6
  3  2  1  0
  4  3  2  0
  5  2  1  0
  6  5  1  0
  7  6  2  0
  8  6  1  0
  9  7  1  0
 10  8  2  0
 11  9  2  0
 11 10  1  0
 12  3  1  0
 13 12  1  0
 13 14  1  6
 15 14  2  0
 16 13  1  0
 17 16  1  0
 18 17  1  0
 18 12  1  0
 19 14  1  0
 20 19  1  0
 21 20  1  0
 22 21  2  0
 20 23  1  6
 24 21  1  0
 25 24  1  6
 26 25  1  0
 26 27  1  1
 28 26  1  0
 29 28  1  0
 30 29  1  0
 31 29  1  0
 32 29  1  0
 33 25  1  0
 34 33  1  0
 35 33  1  0
 36 35  1  1
 37 36  1  0
 38 37  2  0
 39 36  1  0
 40 39  1  0
 41 39  1  0
 42 37  1  0
M  END
$$$$
7BAB
     RDKit          3D

 42 43  0  0  0  0  0  0  0  0999 V2000
   12.7320    7.9220   14.6680 N   0  0  0  0  0  0  0  0  0  0  0  0
   13.6300    9.0760   14.6650 C   0  0  2  0  0  0  0  0  0  0  0  0
   12.9600   10.2950   14.0280 C   0  0  0  0  0  0  0  0  0  0  0  0
   12.1100   10.1530   13.1460 O   0  0  0  0  0  0  0  0  0  0  0  0
   14.9540    8.7360   13.9590 C   0  0  0  0  0  0  0  0  0  0  0  0
   14.7880    8.1640   12.5730 C   0  0  0  0  0  0  0  0  0  0  0  0
   14.7440    8.9960   11.4620 C   0  0  0  0  0  0  0  0  0  0  0  0
   14.6940    6.7930   12.3790 C   0  0  0  0  0  0  0  0  0  0  0  0
   14.5960    8.4710   10.1860 C   0  0  0  0  0  0  0  0  0  0  0  0
   14.5440    6.2620   11.1040 C   0  0  0  0  0  0  0  0  0  0  0  0
   14.4960    7.1020   10.0080 C   0  0  0  0  0  0  0  0  0  0  0  0
   13.3280   11.4910   14.4770 N   0  0  0  0  0  0  0  0  0  0  0  0
   12.7410   12.7050   13.9050 C   0  0  2  0  0  0  0  0  0  0  0  0
   13.3410   13.0260   12.5430 C   0  0  0  0  0  0  0  0  0  0  0  0
   14.3970   12.5230   12.1490 O   0  0  0  0  0  0  0  0  0  0  0  0
   13.1160   13.7720   14.9370 C   0  0  0  0  0  0  0  0  0  0  0  0
   14.4570   13.3170   15.4270 C   0  0  0  0  0  0  0  0  0  0  0  0
   14.3210   11.8060   15.5240 C   0  0  0  0  0  0  0  0  0  0  0  0
   12.6350   13.8770   11.8100 N   0  0  0  0  0  0  0  0  0  0  0  0
   13.0280   14.2180   10.4530 C   0  0  2  0  0  0  0  0  0  0  0  0
   14.1510   15.2460   10.4290 C   0  0  0  0  0  0  0  0  0  0  0  0
   14.1040   16.2200   11.1730 O   0  0  0  0  0  0  0  0  0  0  0  0
   11.8300   14.7440    9.6860 C   0  0  0  0  0  0  0  0  0  0  0  0
   15.1450   15.0040    9.5770 N   0  0  0  0  0  0  0  0  0  0  0  0
   16.2130   15.9560    9.2590 C   0  0  1  0  0  0  0  0  0  0  0  0
   17.5440   15.5970    9.9940 C   0  0  1  0  0  0  0  0  0  0  0  0
   17.3880   15.7830   11.5040 C   0  0  0  0  0  0  0  0  0  0  0  0
   17.8150   14.2350    9.6340 O   0  0  0  0  0  0  0  0  0  0  0  0
   19.2420   13.6110   10.0300 P   0  0  0  0  0  0  0  0  0  0  0  0
   19.3150   12.3200    9.0920 O   0  0  0  0  0  0  0  0  0  0  0  0
   19.2780   13.2270   11.4560 O   0  0  0  0  0  0  0  0  0  0  0  0
   20.3650   14.6460    9.6260 O   0  0  0  0  0  0  0  0  0  0  0  0
   16.4220   15.9390    7.7450 C   0  0  0  0  0  0  0  0  0  0  0  0
   16.0620   14.9610    7.0720 O   0  0  0  0  0  0  0  0  0  0  0  0
   16.9680   17.0240    7.2020 N   0  0  0  0  0  0  0  0  0  0  0  0
   17.2440   17.1090    5.7660 C   0  0  2  0  0  0  0  0  0  0  0  0
   18.6810   17.4640    5.4690 C   0  0  0  0  0  0  0  0  0  0  0  0
   19.4460   17.8950    6.3390 O   0  0  0  0  0  0  0  0  0  0  0  0
   16.3120   18.1050    5.0350 C   0  0  0  0  0  0  0  0  0  0  0  0
   14.8850   17.6910    5.1760 C   0  0  0  0  0  0  0  0  0  0  0  0
   16.5260   19.5160    5.5610 C   0  0  0  0  0  0  0  0  0  0  0  0
   19.0840   17.3330    4.3080 O   0  0  0  0  0  0  0  0  0  0  0  0
  2  1  1  6
  3  2  1  0
  4  3  2  0
  5  2  1  0
  6  5  1  0
  7  6  2  0
  8  6  1  0
  9  7  1  0
 10  8  2  0
 11  9  2  0
 11 10  1  0
 12  3  1  0
 13 12  1  0
 13 14  1  6
 15 14  2  0
 16 13  1  0
 17 16  1  0
 18 17  1  0
 18 12  1  0
 19 14  1  0
 20 19  1  0
 21 20  1  0
 22 21  2  0
 20 23  1  6
 24 21  1  0
 25 24  1  6
 26 25  1  0
 26 27  1  1
 28 26  1  0
 29 28  1  0
 30 29  1  0
 31 29  1  0
 32 29  1  0
 33 25  1  0
 34 33  1  0
 35 33  1  0
 36 35  1  1
 37 36  1  0
 38 37  2  0
 39 36  1  0
 40 39  1  0
 41 39  1  0
 42 37  1  0
M  END
$$$$
5JMM
     RDKit          3D

 21 23  0  0  0  0  0  0  0  0999 V2000
   22.1440    4.0440    6.5290 C   0  0  0  0  0  0  0  0  0  0  0  0
   21.2120    5.3170    4.7300 C   0  0  0  0  0  0  0  0  0  0  0  0
   16.3260    5.6410    7.4420 O   0  0  0  0  0  0  0  0  0  0  0  0
   19.9950    5.3690    5.4550 C   0  0  0  0  0  0  0  0  0  0  0  0
   19.8710    4.7660    6.6760 C   0  0  0  0  0  0  0  0  0  0  0  0
   17.5640    5.5410    6.7970 C   0  0  0  0  0  0  0  0  0  0  0  0
   17.7030    6.1440    5.5400 C   0  0  0  0  0  0  0  0  0  0  0  0
   18.9090    6.0650    4.8700 C   0  0  0  0  0  0  0  0  0  0  0  0
   18.6270    4.8500    7.3780 C   0  0  0  0  0  0  0  0  0  0  0  0
   22.2770    4.5810    5.2360 C   0  0  1  0  0  0  0  0  0  0  0  0
   20.9630    4.0780    7.2210 O   0  0  0  0  0  0  0  0  0  0  0  0
   23.5070    4.6440    4.5970 C   0  0  0  0  0  0  0  0  0  0  0  0
   21.3000    5.9130    3.7000 O   0  0  0  0  0  0  0  0  0  0  0  0
   24.1130    5.8820    4.4010 C   0  0  0  0  0  0  0  0  0  0  0  0
   25.3360    5.9770    3.7600 C   0  0  0  0  0  0  0  0  0  0  0  0
   25.9640    4.8220    3.3180 C   0  0  0  0  0  0  0  0  0  0  0  0
   25.3650    3.5810    3.5130 C   0  0  0  0  0  0  0  0  0  0  0  0
   24.1360    3.4900    4.1480 C   0  0  0  0  0  0  0  0  0  0  0  0
   27.2060    4.9200    2.6790 O   0  0  0  0  0  0  0  0  0  0  0  0
   19.0910    6.6690    3.6190 O   0  0  0  0  0  0  0  0  0  0  0  0
   28.2790    4.7700    3.5650 C   0  0  0  0  0  0  0  0  0  0  0  0
  4  2  1  0
  5  4  1  0
  6  3  1  0
  7  6  1  0
  8  4  1  0
  8  7  1  0
  9  5  1  0
  9  6  1  0
 10  2  1  0
 10  1  1  0
 11  5  1  0
 11  1  1  0
 10 12  1  1
 13  2  1  0
 14 12  1  0
 15 14  1  0
 16 15  1  0
 17 16  1  0
 18 17  1  0
 18 12  1  0
 19 16  1  0
 20  8  1  0
 21 19  1  0
M  END
$$$$
5T1Z
     RDKit          3D

 27 29  0  0  0  0  0  0  0  0999 V2000
   28.7300    2.9360    8.3040 C   0  0  0  0  0  0  0  0  0  0  0  0
   22.9360   -6.5630    8.1080 C   0  0  0  0  0  0  0  0  0  0  0  0
   26.6650   -3.9510   12.7520 O   0  0  0  0  0  0  0  0  0  0  0  0
   20.7740   -2.3970    2.1680 O   0  0  0  0  0  0  0  0  0  0  0  0
   24.9820   -3.0920   11.3200 C   0  0  0  0  0  0  0  0  0  0  0  0
   26.2810   -5.0270   10.5830 C   0  0  0  0  0  0  0  0  0  0  0  0
   20.8910   -2.8520    4.4820 C   0  0  0  0  0  0  0  0  0  0  0  0
   22.9130   -2.4810    3.2560 C   0  0  0  0  0  0  0  0  0  0  0  0
   27.2920   -1.3960    7.1610 C   0  0  0  0  0  0  0  0  0  0  0  0
   25.5230    0.2400    6.9850 C   0  0  0  0  0  0  0  0  0  0  0  0
   24.2640   -3.1260   10.0970 C   0  0  0  0  0  0  0  0  0  0  0  0
   25.5550   -5.0670    9.3490 C   0  0  0  0  0  0  0  0  0  0  0  0
   21.6570   -3.0370    5.6390 C   0  0  0  0  0  0  0  0  0  0  0  0
   23.6750   -2.6680    4.4190 C   0  0  0  0  0  0  0  0  0  0  0  0
   26.3310   -2.4340    7.1000 C   0  0  0  0  0  0  0  0  0  0  0  0
   24.5770   -0.8000    6.9220 C   0  0  0  0  0  0  0  0  0  0  0  0
   27.5990    1.9430    8.2570 C   0  0  0  0  0  0  0  0  0  0  0  0
   22.5450   -5.1330    7.9160 C   0  0  0  0  0  0  0  0  0  0  0  0
   27.7820    0.9770    7.1630 O   0  0  0  0  0  0  0  0  0  0  0  0
   23.6780   -4.0850    7.8500 C   0  0  1  0  0  0  0  0  0  0  0  0
   23.8550   -3.1510    6.8940 C   0  0  0  0  0  0  0  0  0  0  0  0
   25.9730   -4.0250   11.5550 C   0  0  0  0  0  0  0  0  0  0  0  0
   21.5270   -2.5820    3.3060 C   0  0  0  0  0  0  0  0  0  0  0  0
   26.8680   -0.0770    7.1130 C   0  0  0  0  0  0  0  0  0  0  0  0
   24.5430   -4.1250    9.1210 C   0  0  0  0  0  0  0  0  0  0  0  0
   23.0420   -2.9580    5.6130 C   0  0  0  0  0  0  0  0  0  0  0  0
   24.9720   -2.1040    6.9690 C   0  0  0  0  0  0  0  0  0  0  0  0
 11  5  1  0
 12  6  1  0
 13  7  1  0
 14  8  1  0
 15  9  1  0
 16 10  1  0
 17  1  1  0
 18  2  1  0
 19 17  1  0
 20 18  1  1
 21 20  1  0
 22  6  1  0
 22  5  1  0
 22  3  1  0
 23  7  1  0
 23  4  1  0
 23  8  1  0
 24 10  1  0
 24 19  1  0
 24  9  1  0
 25 20  1  0
 25 12  1  0
 25 11  1  0
 26 13  1  0
 26 14  1  0
 26 21  1  0
 27 21  1  0
 27 16  1  0
 27 15  1  0
M  END
$$$$
8C42
     RDKit          3D

 46 45  0  0  0  0  0  0  0  0999 V2000
   10.3110    7.5970   13.2210 N   0  0  0  0  0  0  0  0  0  0  0  0
   11.5720    8.2040   13.6230 C   0  0  2  0  0  0  0  0  0  0  0  0
   11.5630    9.6770   13.2130 C   0  0  0  0  0  0  0  0  0  0  0  0
   11.0980   10.0200   12.1270 O   0  0  0  0  0  0  0  0  0  0  0  0
   12.7390    7.4740   12.9600 C   0  0  0  0  0  0  0  0  0  0  0  0
   14.1160    7.9820   13.3530 C   0  0  0  0  0  0  0  0  0  0  0  0
   15.2150    7.1220   12.7190 C   0  0  0  0  0  0  0  0  0  0  0  0
   16.4500    7.8750   12.5470 N   0  0  0  0  0  0  0  0  0  0  0  0
   17.3000    8.1340   13.5320 C   0  0  0  0  0  0  0  0  0  0  0  0
   17.1150    7.6520   14.7520 N   0  0  0  0  0  0  0  0  0  0  0  0
   18.3670    8.8900   13.2890 N   0  0  0  0  0  0  0  0  0  0  0  0
   12.0650   10.5350   14.1020 N   0  0  0  0  0  0  0  0  0  0  0  0
   12.0730   11.9700   13.8440 C   0  0  2  0  0  0  0  0  0  0  0  0
   12.8300   12.2870   12.5580 C   0  0  0  0  0  0  0  0  0  0  0  0
   13.7260   11.5500   12.1320 O   0  0  0  0  0  0  0  0  0  0  0  0
   12.6860   12.7240   15.0270 C   0  0  0  0  0  0  0  0  0  0  0  0
   14.2170   12.8260   15.0360 C   0  0  0  0  0  0  0  0  0  0  0  0
   14.9310   11.4740   15.1580 C   0  0  0  0  0  0  0  0  0  0  0  0
   16.3800   11.6510   15.1280 N   0  0  0  0  0  0  0  0  0  0  0  0
   17.0940   11.8810   14.0320 C   0  0  0  0  0  0  0  0  0  0  0  0
   16.5420   11.8860   12.8260 N   0  0  0  0  0  0  0  0  0  0  0  0
   18.3940   12.1220   14.1530 N   0  0  0  0  0  0  0  0  0  0  0  0
   12.4620   13.3990   11.9390 N   0  0  0  0  0  0  0  0  0  0  0  0
   13.0040   13.7650   10.6430 C   0  0  2  0  0  0  0  0  0  0  0  0
   14.1660   14.7430   10.7460 C   0  0  0  0  0  0  0  0  0  0  0  0
   14.1020   15.7120   11.5010 O   0  0  0  0  0  0  0  0  0  0  0  0
   11.9190   14.3490    9.7650 C   0  0  0  0  0  0  0  0  0  0  0  0
   15.2360   14.4590   10.0070 N   0  0  0  0  0  0  0  0  0  0  0  0
   16.2700   15.4360    9.6780 C   0  0  1  0  0  0  0  0  0  0  0  0
   17.6080   15.1150   10.3700 C   0  0  1  0  0  0  0  0  0  0  0  0
   17.4840   15.3840   11.8720 C   0  0  0  0  0  0  0  0  0  0  0  0
   17.9190   13.7450   10.0640 O   0  0  0  0  0  0  0  0  0  0  0  0
   19.4530   13.2450   10.3050 P   0  0  0  0  0  0  0  0  0  0  0  0
   19.5290   11.9260    9.4070 O   0  0  0  0  0  0  0  0  0  0  0  0
   19.6630   12.9050   11.7410 O   0  0  0  0  0  0  0  0  0  0  0  0
   20.4620   14.3680    9.7900 O   0  0  0  0  0  0  0  0  0  0  0  0
   16.4400   15.4490    8.1630 C   0  0  0  0  0  0  0  0  0  0  0  0
   15.9620   14.5490    7.4510 O   0  0  0  0  0  0  0  0  0  0  0  0
   17.1010   16.4770    7.6570 N   0  0  0  0  0  0  0  0  0  0  0  0
   17.2240   16.6600    6.2150 C   0  0  2  0  0  0  0  0  0  0  0  0
   18.6220   17.1060    5.8230 C   0  0  0  0  0  0  0  0  0  0  0  0
   19.3470   17.6240    6.6810 O   0  0  0  0  0  0  0  0  0  0  0  0
   16.1350   17.6340    5.6840 C   0  0  0  0  0  0  0  0  0  0  0  0
   16.4920   19.0680    6.0440 C   0  0  0  0  0  0  0  0  0  0  0  0
   15.9420   17.4850    4.1830 C   0  0  0  0  0  0  0  0  0  0  0  0
   19.0520   16.9600    4.6630 O   0  0  0  0  0  0  0  0  0  0  0  0
  2  1  1  6
  3  2  1  0
  4  3  2  0
  5  2  1  0
  6  5  1  0
  7  6  1  0
  8  7  1  0
  9  8  1  0
 10  9  1  0
 11  9  2  0
 12  3  1  0
 13 12  1  0
 14 13  1  0
 15 14  2  0
 13 16  1  1
 17 16  1  0
 18 17  1  0
 19 18  1  0
 20 19  1  0
 21 20  1  0
 22 20  2  0
 23 14  1  0
 24 23  1  0
 25 24  1  0
 26 25  2  0
 24 27  1  6
 28 25  1  0
 29 28  1  6
 30 29  1  0
 30 31  1  1
 32 30  1  0
 33 32  1  0
 34 33  1  0
 35 33  1  0
 36 33  1  0
 37 29  1  0
 38 37  1  0
 39 37  1  0
 40 39  1  1
 41 40  1  0
 42 41  2  0
 43 40  1  0
 44 43  1  0
 45 43  1  0
 46 41  1  0
M  END
$$$$
4IU7
     RDKit          3D

 79 79  0  0  0  0  0  0  0  0999 V2000
    7.4800   -1.3330   34.8390 N   0  0  0  0  0  0  0  0  0  0  0  0
    7.5310    0.0280   34.3180 C   0  0  2  0  0  0  0  0  0  0  0  0
    6.5940    0.9390   35.1050 C   0  0  0  0  0  0  0  0  0  0  0  0
    5.3930    0.6800   35.1980 O   0  0  0  0  0  0  0  0  0  0  0  0
    7.1690    0.0400   32.8320 C   0  0  0  0  0  0  0  0  0  0  0  0
    7.8220    1.1540   32.0340 C   0  0  0  0  0  0  0  0  0  0  0  0
    7.6090    0.9430   30.5460 C   0  0  0  0  0  0  0  0  0  0  0  0
    8.4860    1.8680   29.7210 C   0  0  0  0  0  0  0  0  0  0  0  0
    8.3200    1.6260   28.2590 N   0  0  0  0  0  0  0  0  0  0  0  0
    7.1500    2.0040   35.6740 N   0  0  0  0  0  0  0  0  0  0  0  0
    6.3810    2.9190   36.5100 C   0  0  2  0  0  0  0  0  0  0  0  0
    5.1850    3.5170   35.7720 C   0  0  0  0  0  0  0  0  0  0  0  0
    4.0520    3.4480   36.2510 O   0  0  0  0  0  0  0  0  0  0  0  0
    7.2580    4.0600   37.0540 C   0  0  2  0  0  0  0  0  0  0  0  0
    8.4630    3.4930   37.8070 C   0  0  0  0  0  0  0  0  0  0  0  0
    6.4420    4.9680   37.9570 C   0  0  0  0  0  0  0  0  0  0  0  0
    9.3390    4.5500   38.4430 C   0  0  0  0  0  0  0  0  0  0  0  0
    5.4420    4.1060   34.6080 N   0  0  0  0  0  0  0  0  0  0  0  0
    4.3810    4.7140   33.8140 C   0  0  2  0  0  0  0  0  0  0  0  0
    3.2920    3.6950   33.5010 C   0  0  0  0  0  0  0  0  0  0  0  0
    2.1010    4.0000   33.5640 O   0  0  0  0  0  0  0  0  0  0  0  0
    4.9470    5.3020   32.5200 C   0  0  0  0  0  0  0  0  0  0  0  0
    3.9280    5.9660   31.5920 C   0  0  0  0  0  0  0  0  0  0  0  0
    3.1540    7.0560   32.3250 C   0  0  0  0  0  0  0  0  0  0  0  0
    4.6090    6.5210   30.3470 C   0  0  0  0  0  0  0  0  0  0  0  0
    3.7130    2.4800   33.1640 N   0  0  0  0  0  0  0  0  0  0  0  0
    2.7870    1.3870   32.9030 C   0  0  2  0  0  0  0  0  0  0  0  0
    1.9230    1.1110   34.1290 C   0  0  0  0  0  0  0  0  0  0  0  0
    0.7180    0.8890   34.0160 O   0  0  0  0  0  0  0  0  0  0  0  0
    3.5600    0.1280   32.5100 C   0  0  0  0  0  0  0  0  0  0  0  0
    2.6880   -1.0510   32.2100 C   0  0  0  0  0  0  0  0  0  0  0  0
    2.1390   -1.2730   30.9660 N   0  0  0  0  0  0  0  0  0  0  0  0
    2.2720   -2.0740   32.9940 C   0  0  0  0  0  0  0  0  0  0  0  0
    1.4230   -2.3830   30.9950 C   0  0  0  0  0  0  0  0  0  0  0  0
    1.4860   -2.8870   32.2140 N   0  0  0  0  0  0  0  0  0  0  0  0
    2.5480    1.1340   35.3020 N   0  0  0  0  0  0  0  0  0  0  0  0
    1.8500    0.8560   36.5520 C   0  0  2  0  0  0  0  0  0  0  0  0
    0.8570    1.9620   36.8990 C   0  0  0  0  0  0  0  0  0  0  0  0
   -0.3130    1.6950   37.1710 O   0  0  0  0  0  0  0  0  0  0  0  0
    2.8500    0.6710   37.6990 C   0  0  0  0  0  0  0  0  0  0  0  0
    2.2140    0.2090   39.0020 C   0  0  0  0  0  0  0  0  0  0  0  0
    3.2450   -0.0200   40.1010 C   0  0  0  0  0  0  0  0  0  0  0  0
    3.7140    1.2270   40.7010 N   0  0  0  0  0  0  0  0  0  0  0  0
    4.9600    1.6800   40.6070 C   0  0  0  0  0  0  0  0  0  0  0  0
    5.8710    0.9870   39.9370 N   0  0  0  0  0  0  0  0  0  0  0  0
    5.2980    2.8240   41.1860 N   0  0  0  0  0  0  0  0  0  0  0  0
    1.3310    3.2040   36.8860 N   0  0  0  0  0  0  0  0  0  0  0  0
    0.4980    4.3440   37.2510 C   0  0  2  0  0  0  0  0  0  0  0  0
   -0.7120    4.4790   36.3300 C   0  0  0  0  0  0  0  0  0  0  0  0
   -1.7820    4.9120   36.7570 O   0  0  0  0  0  0  0  0  0  0  0  0
    1.3190    5.6350   37.2510 C   0  0  0  0  0  0  0  0  0  0  0  0
    2.5270    5.6520   38.1900 C   0  0  0  0  0  0  0  0  0  0  0  0
    3.1890    7.0210   38.1920 C   0  0  0  0  0  0  0  0  0  0  0  0
    2.1140    5.2560   39.5980 C   0  0  0  0  0  0  0  0  0  0  0  0
   -0.5370    4.1030   35.0670 N   0  0  0  0  0  0  0  0  0  0  0  0
   -1.6290    4.1310   34.1000 C   0  0  2  0  0  0  0  0  0  0  0  0
   -2.6630    3.0520   34.3960 C   0  0  0  0  0  0  0  0  0  0  0  0
   -3.8490    3.2210   34.1120 O   0  0  0  0  0  0  0  0  0  0  0  0
   -1.0950    3.9450   32.6770 C   0  0  0  0  0  0  0  0  0  0  0  0
   -0.5160    5.1730   31.9750 C   0  0  0  0  0  0  0  0  0  0  0  0
    0.2050    4.7710   30.6950 C   0  0  0  0  0  0  0  0  0  0  0  0
   -1.6120    6.1870   31.6850 C   0  0  0  0  0  0  0  0  0  0  0  0
   -2.2070    1.9440   34.9710 N   0  0  0  0  0  0  0  0  0  0  0  0
   -3.0650    0.7830   35.1820 C   0  0  2  0  0  0  0  0  0  0  0  0
   -4.0080    0.9380   36.3740 C   0  0  0  0  0  0  0  0  0  0  0  0
   -4.9850    0.1980   36.4980 O   0  0  0  0  0  0  0  0  0  0  0  0
   -2.2200   -0.4820   35.3420 C   0  0  0  0  0  0  0  0  0  0  0  0
   -2.6650   -1.6300   34.4520 C   0  0  0  0  0  0  0  0  0  0  0  0
   -1.8380   -2.8820   34.6630 C   0  0  0  0  0  0  0  0  0  0  0  0
   -1.0590   -2.9710   35.6120 O   0  0  0  0  0  0  0  0  0  0  0  0
   -2.0010   -3.8560   33.7750 N   0  0  0  0  0  0  0  0  0  0  0  0
   -3.7170    1.8950   37.2500 N   0  0  0  0  0  0  0  0  0  0  0  0
   -4.5730    2.1440   38.4070 C   0  0  2  0  0  0  0  0  0  0  0  0
   -4.8420    3.6320   38.6070 C   0  0  0  0  0  0  0  0  0  0  0  0
   -5.0140    4.0940   39.7350 O   0  0  0  0  0  0  0  0  0  0  0  0
   -3.9710    1.5320   39.6770 C   0  0  0  0  0  0  0  0  0  0  0  0
   -2.5920    2.0790   39.9940 C   0  0  0  0  0  0  0  0  0  0  0  0
   -1.7750    1.3320   40.5730 O   0  0  0  0  0  0  0  0  0  0  0  0
   -2.3250    3.2550   39.6670 O   0  0  0  0  0  0  0  0  0  0  0  0
  2  1  1  1
  3  2  1  0
  4  3  2  0
  5  2  1  0
  6  5  1  0
  7  6  1  0
  8  7  1  0
  9  8  1  0
 10  3  1  0
 11 10  1  6
 12 11  1  0
 13 12  2  0
 14 11  1  0
 15 14  1  0
 14 16  1  1
 17 15  1  0
 18 12  1  0
 19 18  1  0
 20 19  1  0
 21 20  2  0
 19 22  1  6
 23 22  1  0
 24 23  1  0
 25 23  1  0
 26 20  1  0
 27 26  1  0
 28 27  1  0
 29 28  2  0
 27 30  1  1
 31 30  1  0
 32 31  1  0
 33 31  2  0
 34 32  2  0
 35 34  1  0
 35 33  1  0
 36 28  1  0
 37 36  1  0
 38 37  1  0
 39 38  2  0
 37 40  1  1
 41 40  1  0
 42 41  1  0
 43 42  1  0
 44 43  1  0
 45 44  1  0
 46 44  2  0
 47 38  1  0
 48 47  1  0
 49 48  1  0
 50 49  2  0
 48 51  1  6
 52 51  1  0
 53 52  1  0
 54 52  1  0
 55 49  1  0
 56 55  1  0
 57 56  1  0
 58 57  2  0
 56 59  1  6
 60 59  1  0
 61 60  1  0
 62 60  1  0
 63 57  1  0
 64 63  1  0
 65 64  1  0
 66 65  2  0
 64 67  1  1
 68 67  1  0
 69 68  1  0
 70 69  2  0
 71 69  1  0
 72 65  1  0
 73 72  1  0
 74 73  1  0
 75 74  2  0
 73 76  1  1
 77 76  1  0
 78 77  2  0
 79 77  1  0
M  END
$$$$
5W9D
     RDKit          3D

 28 30  0  0  0  0  0  0  0  0999 V2000
   18.9520   24.7810  -22.3880 C   0  0  0  0  0  0  0  0  0  0  0  0
   20.3170   25.4190  -22.2070 N   0  0  0  0  0  0  0  0  0  0  0  0
   20.5450   25.6430  -20.7230 C   0  0  0  0  0  0  0  0  0  0  0  0
   19.4880   26.6000  -20.1460 C   0  0  0  0  0  0  0  0  0  0  0  0
   19.8480   26.9170  -18.7900 O   0  0  0  0  0  0  0  0  0  0  0  0
   18.9750   26.7460  -17.7810 C   0  0  0  0  0  0  0  0  0  0  0  0
   17.6920   26.3060  -18.0070 C   0  0  0  0  0  0  0  0  0  0  0  0
   16.8720   26.0380  -16.9320 C   0  0  0  0  0  0  0  0  0  0  0  0
   19.4060   27.0680  -16.5040 C   0  0  0  0  0  0  0  0  0  0  0  0
   18.5400   26.8720  -15.4450 C   0  0  0  0  0  0  0  0  0  0  0  0
   17.1840   26.4530  -15.6270 C   0  0  2  0  0  0  0  0  0  0  0  0
   16.3500   26.0940  -14.5150 C   0  0  0  0  0  0  0  0  0  0  0  0
   15.8140   24.7960  -14.6150 C   0  0  1  0  0  0  0  0  0  0  0  0
   16.6410   23.6810  -14.9320 C   0  0  0  0  0  0  0  0  0  0  0  0
   16.0390   22.4300  -15.0470 C   0  0  0  0  0  0  0  0  0  0  0  0
   14.6730   22.2040  -14.7700 C   0  0  2  0  0  0  0  0  0  0  0  0
   14.0880   20.9920  -14.9440 O   0  0  0  0  0  0  0  0  0  0  0  0
   13.8590   23.2500  -14.3950 C   0  0  0  0  0  0  0  0  0  0  0  0
   14.4600   24.5350  -14.2530 C   0  0  0  0  0  0  0  0  0  0  0  0
   16.1170   27.0770  -13.4160 C   0  0  1  0  0  0  0  0  0  0  0  0
   15.4360   26.6680  -12.0950 C   0  0  0  0  0  0  0  0  0  0  0  0
   14.1110   27.4060  -11.9910 C   0  0  0  0  0  0  0  0  0  0  0  0
   16.7110   28.3350  -13.5110 C   0  0  1  0  0  0  0  0  0  0  0  0
   16.2580   29.0940  -14.6300 C   0  0  0  0  0  0  0  0  0  0  0  0
   16.5590   30.4480  -14.8320 C   0  0  0  0  0  0  0  0  0  0  0  0
   17.2570   31.1030  -13.8040 C   0  0  0  0  0  0  0  0  0  0  0  0
   17.5790   30.3870  -12.6390 C   0  0  0  0  0  0  0  0  0  0  0  0
   17.1650   29.0910  -12.4950 C   0  0  0  0  0  0  0  0  0  0  0  0
  2  1  1  0
  3  2  1  0
  4  3  1  0
  5  4  1  0
  6  5  1  0
  7  6  1  0
  8  7  1  0
  9  6  1  0
 10  9  1  0
 11  8  1  0
 11 10  1  0
 11 12  1  1
 13 12  1  1
 14 13  1  0
 15 14  1  0
 16 15  1  0
 16 17  1  6
 18 16  1  0
 19 18  1  0
 19 13  1  0
 20 12  1  0
 20 21  1  1
 22 21  1  0
 23 20  1  0
 23 24  1  1
 25 24  1  0
 26 25  1  0
 27 26  1  0
 28 27  1  0
 28 23  1  0
M  END
$$$$
5KRO
     RDKit          3D

 79 79  0  0  0  0  0  0  0  0999 V2000
   29.2770   17.7690    6.3000 N   0  0  0  0  0  0  0  0  0  0  0  0
   28.4240   16.6250    6.0020 C   0  0  2  0  0  0  0  0  0  0  0  0
   28.2170   16.4480    4.5020 C   0  0  0  0  0  0  0  0  0  0  0  0
   28.0910   17.4250    3.7630 O   0  0  0  0  0  0  0  0  0  0  0  0
   27.0680   16.7700    6.6940 C   0  0  0  0  0  0  0  0  0  0  0  0
   27.1090   16.6020    8.2020 C   0  0  0  0  0  0  0  0  0  0  0  0
   25.7110   16.6870    8.7940 C   0  0  0  0  0  0  0  0  0  0  0  0
   25.7270   16.4530   10.2950 C   0  0  0  0  0  0  0  0  0  0  0  0
   24.3650   16.5700   10.8840 N   0  0  0  0  0  0  0  0  0  0  0  0
   28.1810   15.1950    4.0610 N   0  0  0  0  0  0  0  0  0  0  0  0
   27.9060   14.8780    2.6660 C   0  0  2  0  0  0  0  0  0  0  0  0
   26.4560   15.2130    2.3330 C   0  0  0  0  0  0  0  0  0  0  0  0
   26.1410   15.6250    1.2150 O   0  0  0  0  0  0  0  0  0  0  0  0
   28.1780   13.3910    2.3600 C   0  0  2  0  0  0  0  0  0  0  0  0
   29.5930   13.0090    2.7940 C   0  0  0  0  0  0  0  0  0  0  0  0
   27.9770   13.0970    0.8800 C   0  0  0  0  0  0  0  0  0  0  0  0
   29.9390   11.5660    2.5220 C   0  0  0  0  0  0  0  0  0  0  0  0
   25.5820   15.0430    3.3200 N   0  0  0  0  0  0  0  0  0  0  0  0
   24.1620   15.3350    3.1610 C   0  0  2  0  0  0  0  0  0  0  0  0
   23.9390   16.7970    2.7860 C   0  0  0  0  0  0  0  0  0  0  0  0
   23.0150   17.1190    2.0400 O   0  0  0  0  0  0  0  0  0  0  0  0
   23.4020   14.9930    4.4440 C   0  0  0  0  0  0  0  0  0  0  0  0
   21.8790   15.1250    4.4110 C   0  0  0  0  0  0  0  0  0  0  0  0
   21.3050   14.3810    3.2210 C   0  0  0  0  0  0  0  0  0  0  0  0
   21.2770   14.6030    5.7040 C   0  0  0  0  0  0  0  0  0  0  0  0
   24.7920   17.6740    3.3060 N   0  0  0  0  0  0  0  0  0  0  0  0
   24.7520   19.0890    2.9550 C   0  0  2  0  0  0  0  0  0  0  0  0
   24.9930   19.2910    1.4620 C   0  0  0  0  0  0  0  0  0  0  0  0
   24.2820   20.0510    0.8060 O   0  0  0  0  0  0  0  0  0  0  0  0
   25.7920   19.8750    3.7560 C   0  0  0  0  0  0  0  0  0  0  0  0
   25.4850   19.9920    5.2130 C   0  0  0  0  0  0  0  0  0  0  0  0
   24.1940   19.9430    5.7130 N   0  0  0  0  0  0  0  0  0  0  0  0
   26.2870   20.1590    6.2890 C   0  0  0  0  0  0  0  0  0  0  0  0
   24.2250   20.0740    7.0210 C   0  0  0  0  0  0  0  0  0  0  0  0
   25.4880   20.2070    7.4010 N   0  0  0  0  0  0  0  0  0  0  0  0
   25.9990   18.6010    0.9330 N   0  0  0  0  0  0  0  0  0  0  0  0
   26.3890   18.7570   -0.4640 C   0  0  2  0  0  0  0  0  0  0  0  0
   25.3180   18.2280   -1.4120 C   0  0  0  0  0  0  0  0  0  0  0  0
   24.9730   18.8790   -2.3990 O   0  0  0  0  0  0  0  0  0  0  0  0
   27.7180   18.0440   -0.7300 C   0  0  0  0  0  0  0  0  0  0  0  0
   28.4490   18.5460   -1.9660 C   0  0  0  0  0  0  0  0  0  0  0  0
   29.6750   17.7020   -2.2870 C   0  0  0  0  0  0  0  0  0  0  0  0
   29.3180   16.4210   -2.8910 N   0  0  0  0  0  0  0  0  0  0  0  0
   29.5770   15.2360   -2.3470 C   0  0  0  0  0  0  0  0  0  0  0  0
   30.2050   15.1610   -1.1820 N   0  0  0  0  0  0  0  0  0  0  0  0
   29.2120   14.1250   -2.9730 N   0  0  0  0  0  0  0  0  0  0  0  0
   24.7920   17.0470   -1.1050 N   0  0  0  0  0  0  0  0  0  0  0  0
   23.8050   16.3980   -1.9610 C   0  0  2  0  0  0  0  0  0  0  0  0
   22.4630   17.1280   -1.9460 C   0  0  0  0  0  0  0  0  0  0  0  0
   21.7090   17.0710   -2.9170 O   0  0  0  0  0  0  0  0  0  0  0  0
   23.6180   14.9390   -1.5370 C   0  0  0  0  0  0  0  0  0  0  0  0
   24.8510   14.0530   -1.7370 C   0  0  0  0  0  0  0  0  0  0  0  0
   24.6340   12.6610   -1.1680 C   0  0  0  0  0  0  0  0  0  0  0  0
   25.2130   13.9770   -3.2120 C   0  0  0  0  0  0  0  0  0  0  0  0
   22.1730   17.8150   -0.8460 N   0  0  0  0  0  0  0  0  0  0  0  0
   20.9260   18.5640   -0.7190 C   0  0  2  0  0  0  0  0  0  0  0  0
   20.9750   19.8920   -1.4700 C   0  0  0  0  0  0  0  0  0  0  0  0
   19.9450   20.4040   -1.9080 O   0  0  0  0  0  0  0  0  0  0  0  0
   20.6010   18.8150    0.7550 C   0  0  0  0  0  0  0  0  0  0  0  0
   19.8240   17.7130    1.4750 C   0  0  0  0  0  0  0  0  0  0  0  0
   19.8130   17.9600    2.9720 C   0  0  0  0  0  0  0  0  0  0  0  0
   18.4060   17.6380    0.9360 C   0  0  0  0  0  0  0  0  0  0  0  0
   22.1740   20.4450   -1.6140 N   0  0  0  0  0  0  0  0  0  0  0  0
   22.3480   21.7270   -2.2880 C   0  0  2  0  0  0  0  0  0  0  0  0
   22.4560   21.5640   -3.8010 C   0  0  0  0  0  0  0  0  0  0  0  0
   22.1920   22.5000   -4.5550 O   0  0  0  0  0  0  0  0  0  0  0  0
   23.5870   22.4460   -1.7550 C   0  0  0  0  0  0  0  0  0  0  0  0
   23.4580   22.9380   -0.3250 C   0  0  0  0  0  0  0  0  0  0  0  0
   24.7710   23.4540    0.2270 C   0  0  0  0  0  0  0  0  0  0  0  0
   25.8390   23.1660   -0.3140 O   0  0  0  0  0  0  0  0  0  0  0  0
   24.6990   24.2230    1.3060 N   0  0  0  0  0  0  0  0  0  0  0  0
   22.8480   20.3720   -4.2380 N   0  0  0  0  0  0  0  0  0  0  0  0
   23.0270   20.1010   -5.6600 C   0  0  2  0  0  0  0  0  0  0  0  0
   21.8350   19.3480   -6.2400 C   0  0  0  0  0  0  0  0  0  0  0  0
   21.9840   18.5440   -7.1600 O   0  0  0  0  0  0  0  0  0  0  0  0
   24.3130   19.3070   -5.8930 C   0  0  0  0  0  0  0  0  0  0  0  0
   25.5370   20.0050   -5.3330 C   0  0  0  0  0  0  0  0  0  0  0  0
   26.4690   19.3060   -4.8840 O   0  0  0  0  0  0  0  0  0  0  0  0
   25.5650   21.2540   -5.3390 O   0  0  0  0  0  0  0  0  0  0  0  0
  2  1  1  6
  3  2  1  0
  4  3  2  0
  5  2  1  0
  6  5  1  0
  7  6  1  0
  8  7  1  0
  9  8  1  0
 10  3  1  0
 11 10  1  1
 12 11  1  0
 13 12  2  0
 14 11  1  0
 15 14  1  0
 14 16  1  6
 17 15  1  0
 18 12  1  0
 19 18  1  0
 20 19  1  0
 21 20  2  0
 19 22  1  1
 23 22  1  0
 24 23  1  0
 25 23  1  0
 26 20  1  0
 27 26  1  0
 28 27  1  0
 29 28  2  0
 27 30  1  1
 31 30  1  0
 32 31  1  0
 33 31  2  0
 34 32  2  0
 35 34  1  0
 35 33  1  0
 36 28  1  0
 37 36  1  0
 38 37  1  0
 39 38  2  0
 37 40  1  1
 41 40  1  0
 42 41  1  0
 43 42  1  0
 44 43  1  0
 45 44  1  0
 46 44  2  0
 47 38  1  0
 48 47  1  0
 49 48  1  0
 50 49  2  0
 48 51  1  1
 52 51  1  0
 53 52  1  0
 54 52  1  0
 55 49  1  0
 56 55  1  0
 57 56  1  0
 58 57  2  0
 56 59  1  1
 60 59  1  0
 61 60  1  0
 62 60  1  0
 63 57  1  0
 64 63  1  0
 65 64  1  0
 66 65  2  0
 64 67  1  1
 68 67  1  0
 69 68  1  0
 70 69  2  0
 71 69  1  0
 72 65  1  0
 73 72  1  0
 74 73  1  0
 75 74  2  0
 73 76  1  1
 77 76  1  0
 78 77  2  0
 79 77  1  0
M  END
$$$$
5KR9
     RDKit          3D

 79 79  0  0  0  0  0  0  0  0999 V2000
   -5.4240  -40.5820  -32.8900 N   0  0  0  0  0  0  0  0  0  0  0  0
   -6.0050  -39.2930  -33.2500 C   0  0  2  0  0  0  0  0  0  0  0  0
   -5.1200  -38.5370  -34.2370 C   0  0  0  0  0  0  0  0  0  0  0  0
   -3.9410  -38.8550  -34.4000 O   0  0  0  0  0  0  0  0  0  0  0  0
   -6.2470  -38.4470  -31.9960 C   0  0  0  0  0  0  0  0  0  0  0  0
   -7.4080  -38.9370  -31.1380 C   0  0  0  0  0  0  0  0  0  0  0  0
   -7.5630  -38.1210  -29.8620 C   0  0  0  0  0  0  0  0  0  0  0  0
   -6.4330  -38.3980  -28.8810 C   0  0  0  0  0  0  0  0  0  0  0  0
   -6.7180  -37.8330  -27.5300 N   0  0  0  0  0  0  0  0  0  0  0  0
   -5.7010  -37.5390  -34.8970 N   0  0  0  0  0  0  0  0  0  0  0  0
   -4.9850  -36.7420  -35.8880 C   0  0  2  0  0  0  0  0  0  0  0  0
   -3.8030  -36.0100  -35.2600 C   0  0  0  0  0  0  0  0  0  0  0  0
   -2.7120  -35.9650  -35.8310 O   0  0  0  0  0  0  0  0  0  0  0  0
   -5.9220  -35.7200  -36.5670 C   0  0  2  0  0  0  0  0  0  0  0  0
   -7.0400  -36.4460  -37.3220 C   0  0  0  0  0  0  0  0  0  0  0  0
   -5.1410  -34.8140  -37.5080 C   0  0  0  0  0  0  0  0  0  0  0  0
   -7.9480  -35.5300  -38.1200 C   0  0  0  0  0  0  0  0  0  0  0  0
   -4.0290  -35.4530  -34.0740 N   0  0  0  0  0  0  0  0  0  0  0  0
   -2.9910  -34.7410  -33.3360 C   0  0  2  0  0  0  0  0  0  0  0  0
   -1.7990  -35.6460  -33.0390 C   0  0  0  0  0  0  0  0  0  0  0  0
   -0.6480  -35.2150  -33.0890 O   0  0  0  0  0  0  0  0  0  0  0  0
   -3.5650  -34.1790  -32.0350 C   0  0  0  0  0  0  0  0  0  0  0  0
   -2.6040  -33.4330  -31.1110 C   0  0  0  0  0  0  0  0  0  0  0  0
   -2.0350  -32.2310  -31.8210 C   0  0  0  0  0  0  0  0  0  0  0  0
   -3.3120  -33.0130  -29.8380 C   0  0  0  0  0  0  0  0  0  0  0  0
   -2.0970  -36.9040  -32.7330 N   0  0  0  0  0  0  0  0  0  0  0  0
   -1.0840  -37.9180  -32.4700 C   0  0  2  0  0  0  0  0  0  0  0  0
   -0.2030  -38.1480  -33.7010 C   0  0  0  0  0  0  0  0  0  0  0  0
    1.0200  -38.2230  -33.5900 O   0  0  0  0  0  0  0  0  0  0  0  0
   -1.7610  -39.2230  -32.0370 C   0  0  0  0  0  0  0  0  0  0  0  0
   -0.8120  -40.2770  -31.5580 C   0  0  0  0  0  0  0  0  0  0  0  0
   -0.2860  -41.2400  -32.3920 N   0  0  0  0  0  0  0  0  0  0  0  0
   -0.3120  -40.5330  -30.3260 C   0  0  0  0  0  0  0  0  0  0  0  0
    0.5050  -42.0380  -31.6960 C   0  0  0  0  0  0  0  0  0  0  0  0
    0.5080  -41.6300  -30.4400 N   0  0  0  0  0  0  0  0  0  0  0  0
   -0.8370  -38.2490  -34.8680 N   0  0  0  0  0  0  0  0  0  0  0  0
   -0.1250  -38.4380  -36.1320 C   0  0  2  0  0  0  0  0  0  0  0  0
    0.8480  -37.3020  -36.4290 C   0  0  0  0  0  0  0  0  0  0  0  0
    2.0280  -37.5360  -36.6910 O   0  0  0  0  0  0  0  0  0  0  0  0
   -1.1170  -38.5690  -37.2930 C   0  0  0  0  0  0  0  0  0  0  0  0
   -1.6930  -39.9620  -37.4820 C   0  0  0  0  0  0  0  0  0  0  0  0
   -2.5730  -40.0320  -38.7220 C   0  0  0  0  0  0  0  0  0  0  0  0
   -3.9140  -40.5210  -38.4110 N   0  0  0  0  0  0  0  0  0  0  0  0
   -5.0230  -39.7970  -38.5320 C   0  0  0  0  0  0  0  0  0  0  0  0
   -6.2000  -40.3280  -38.2230 N   0  0  0  0  0  0  0  0  0  0  0  0
   -4.9590  -38.5470  -38.9690 N   0  0  0  0  0  0  0  0  0  0  0  0
    0.3410  -36.0750  -36.3900 N   0  0  0  0  0  0  0  0  0  0  0  0
    1.1360  -34.8950  -36.7100 C   0  0  2  0  0  0  0  0  0  0  0  0
    2.3050  -34.7170  -35.7460 C   0  0  0  0  0  0  0  0  0  0  0  0
    3.4150  -34.3820  -36.1580 O   0  0  0  0  0  0  0  0  0  0  0  0
    0.2490  -33.6500  -36.7020 C   0  0  0  0  0  0  0  0  0  0  0  0
   -0.8870  -33.6980  -37.7260 C   0  0  0  0  0  0  0  0  0  0  0  0
   -1.8000  -32.4900  -37.5970 C   0  0  0  0  0  0  0  0  0  0  0  0
   -0.3190  -33.7990  -39.1330 C   0  0  0  0  0  0  0  0  0  0  0  0
    2.0480  -34.9480  -34.4640 N   0  0  0  0  0  0  0  0  0  0  0  0
    3.0890  -34.8790  -33.4450 C   0  0  2  0  0  0  0  0  0  0  0  0
    4.1610  -35.9350  -33.6740 C   0  0  0  0  0  0  0  0  0  0  0  0
    5.3350  -35.7190  -33.3780 O   0  0  0  0  0  0  0  0  0  0  0  0
    2.4820  -35.0520  -32.0530 C   0  0  0  0  0  0  0  0  0  0  0  0
    1.7700  -33.8350  -31.4710 C   0  0  0  0  0  0  0  0  0  0  0  0
    0.9230  -34.2440  -30.2800 C   0  0  0  0  0  0  0  0  0  0  0  0
    2.7940  -32.7940  -31.0700 C   0  0  0  0  0  0  0  0  0  0  0  0
    3.7420  -37.0780  -34.2040 N   0  0  0  0  0  0  0  0  0  0  0  0
    4.6350  -38.2130  -34.3960 C   0  0  2  0  0  0  0  0  0  0  0  0
    5.4470  -38.0740  -35.6800 C   0  0  0  0  0  0  0  0  0  0  0  0
    6.6480  -38.3400  -35.6980 O   0  0  0  0  0  0  0  0  0  0  0  0
    3.8320  -39.5140  -34.4200 C   0  0  0  0  0  0  0  0  0  0  0  0
    4.6240  -40.7440  -34.0360 C   0  0  0  0  0  0  0  0  0  0  0  0
    3.7450  -41.9710  -33.9040 C   0  0  0  0  0  0  0  0  0  0  0  0
    2.8380  -42.1860  -34.7070 O   0  0  0  0  0  0  0  0  0  0  0  0
    4.0030  -42.7790  -32.8820 N   0  0  0  0  0  0  0  0  0  0  0  0
    4.7810  -37.6530  -36.7490 N   0  0  0  0  0  0  0  0  0  0  0  0
    5.4170  -37.5320  -38.0550 C   0  0  2  0  0  0  0  0  0  0  0  0
    6.2690  -36.2700  -38.1470 C   0  0  0  0  0  0  0  0  0  0  0  0
    7.4980  -36.3350  -38.1030 O   0  0  0  0  0  0  0  0  0  0  0  0
    4.3600  -37.5370  -39.1590 C   0  0  0  0  0  0  0  0  0  0  0  0
    3.5040  -38.7890  -39.1370 C   0  0  0  0  0  0  0  0  0  0  0  0
    2.8380  -39.0740  -40.1550 O   0  0  0  0  0  0  0  0  0  0  0  0
    3.5000  -39.4920  -38.1030 O   0  0  0  0  0  0  0  0  0  0  0  0
  2  1  1  1
  3  2  1  0
  4  3  2  0
  5  2  1  0
  6  5  1  0
  7  6  1  0
  8  7  1  0
  9  8  1  0
 10  3  1  0
 11 10  1  1
 12 11  1  0
 13 12  2  0
 14 11  1  0
 15 14  1  0
 14 16  1  6
 17 15  1  0
 18 12  1  0
 19 18  1  0
 20 19  1  0
 21 20  2  0
 19 22  1  1
 23 22  1  0
 24 23  1  0
 25 23  1  0
 26 20  1  0
 27 26  1  0
 28 27  1  0
 29 28  2  0
 27 30  1  6
 31 30  1  0
 32 31  1  0
 33 31  2  0
 34 32  2  0
 35 34  1  0
 35 33  1  0
 36 28  1  0
 37 36  1  0
 38 37  1  0
 39 38  2  0
 37 40  1  6
 41 40  1  0
 42 41  1  0
 43 42  1  0
 44 43  1  0
 45 44  1  0
 46 44  2  0
 47 38  1  0
 48 47  1  0
 49 48  1  0
 50 49  2  0
 48 51  1  1
 52 51  1  0
 53 52  1  0
 54 52  1  0
 55 49  1  0
 56 55  1  0
 57 56  1  0
 58 57  2  0
 56 59  1  1
 60 59  1  0
 61 60  1  0
 62 60  1  0
 63 57  1  0
 64 63  1  0
 65 64  1  0
 66 65  2  0
 64 67  1  6
 68 67  1  0
 69 68  1  0
 70 69  2  0
 71 69  1  0
 72 65  1  0
 73 72  1  0
 74 73  1  0
 75 74  2  0
 73 76  1  6
 77 76  1  0
 78 77  2  0
 79 77  1  0
M  END
$$$$
4ZNU
     RDKit          3D

 69 69  0  0  0  0  0  0  0  0999 V2000
   -0.8770  -17.5150   18.9540 N   0  0  0  0  0  0  0  0  0  0  0  0
    0.2080  -17.0440   19.8060 C   0  0  2  0  0  0  0  0  0  0  0  0
    1.2080  -16.2290   18.9930 C   0  0  0  0  0  0  0  0  0  0  0  0
    2.3920  -16.5610   18.9360 O   0  0  0  0  0  0  0  0  0  0  0  0
    0.9110  -18.2270   20.4780 C   0  0  0  0  0  0  0  0  0  0  0  0
    0.7170  -15.1640   18.3650 N   0  0  0  0  0  0  0  0  0  0  0  0
    1.5330  -14.3090   17.5060 C   0  0  2  0  0  0  0  0  0  0  0  0
    2.6910  -13.6750   18.2680 C   0  0  0  0  0  0  0  0  0  0  0  0
    3.8310  -13.6710   17.7990 O   0  0  0  0  0  0  0  0  0  0  0  0
    0.6860  -13.1850   16.8810 C   0  0  2  0  0  0  0  0  0  0  0  0
   -0.4720  -13.7790   16.0750 C   0  0  0  0  0  0  0  0  0  0  0  0
    1.5510  -12.2800   16.0130 C   0  0  0  0  0  0  0  0  0  0  0  0
   -1.3790  -12.7400   15.4580 C   0  0  0  0  0  0  0  0  0  0  0  0
    2.3790  -13.1380   19.4420 N   0  0  0  0  0  0  0  0  0  0  0  0
    3.3730  -12.5230   20.3140 C   0  0  2  0  0  0  0  0  0  0  0  0
    4.4780  -13.5130   20.6600 C   0  0  0  0  0  0  0  0  0  0  0  0
    5.6570  -13.1600   20.7080 O   0  0  0  0  0  0  0  0  0  0  0  0
    2.6970  -12.0220   21.5940 C   0  0  0  0  0  0  0  0  0  0  0  0
    3.5970  -11.5310   22.7290 C   0  0  0  0  0  0  0  0  0  0  0  0
    4.4560  -10.3660   22.2710 C   0  0  0  0  0  0  0  0  0  0  0  0
    2.7650  -11.1490   23.9440 C   0  0  0  0  0  0  0  0  0  0  0  0
    4.0790  -14.7580   20.8910 N   0  0  0  0  0  0  0  0  0  0  0  0
    5.0070  -15.8320   21.2150 C   0  0  2  0  0  0  0  0  0  0  0  0
    5.9260  -16.1260   20.0300 C   0  0  0  0  0  0  0  0  0  0  0  0
    7.1130  -16.4110   20.2010 O   0  0  0  0  0  0  0  0  0  0  0  0
    4.2180  -17.0830   21.5970 C   0  0  0  0  0  0  0  0  0  0  0  0
    5.0530  -18.1700   22.1940 C   0  0  0  0  0  0  0  0  0  0  0  0
    5.7000  -19.1170   21.4300 N   0  0  0  0  0  0  0  0  0  0  0  0
    5.3370  -18.4690   23.4840 C   0  0  0  0  0  0  0  0  0  0  0  0
    6.3500  -19.9500   22.2220 C   0  0  0  0  0  0  0  0  0  0  0  0
    6.1450  -19.5790   23.4730 N   0  0  0  0  0  0  0  0  0  0  0  0
    5.3650  -16.0490   18.8280 N   0  0  0  0  0  0  0  0  0  0  0  0
    6.1200  -16.2980   17.6080 C   0  0  2  0  0  0  0  0  0  0  0  0
    7.0930  -15.1630   17.3220 C   0  0  0  0  0  0  0  0  0  0  0  0
    8.2570  -15.3980   17.0050 O   0  0  0  0  0  0  0  0  0  0  0  0
    5.1710  -16.4800   16.4200 C   0  0  0  0  0  0  0  0  0  0  0  0
    6.6080  -13.9310   17.4340 N   0  0  0  0  0  0  0  0  0  0  0  0
    7.4220  -12.7600   17.1290 C   0  0  2  0  0  0  0  0  0  0  0  0
    8.5680  -12.5940   18.1200 C   0  0  0  0  0  0  0  0  0  0  0  0
    9.6470  -12.1250   17.7590 O   0  0  0  0  0  0  0  0  0  0  0  0
    6.5600  -11.4950   17.0660 C   0  0  0  0  0  0  0  0  0  0  0  0
    6.0170  -11.1220   15.6800 C   0  0  0  0  0  0  0  0  0  0  0  0
    5.2880  -12.2900   15.0300 C   0  0  0  0  0  0  0  0  0  0  0  0
    5.1100   -9.9020   15.7530 C   0  0  0  0  0  0  0  0  0  0  0  0
    8.3360  -12.9870   19.3670 N   0  0  0  0  0  0  0  0  0  0  0  0
    9.3970  -12.9850   20.3670 C   0  0  2  0  0  0  0  0  0  0  0  0
   10.4480  -14.0400   20.0270 C   0  0  0  0  0  0  0  0  0  0  0  0
   11.5820  -13.9760   20.4990 O   0  0  0  0  0  0  0  0  0  0  0  0
    8.8290  -13.2160   21.7690 C   0  0  0  0  0  0  0  0  0  0  0  0
    8.2910  -11.9810   22.4980 C   0  0  0  0  0  0  0  0  0  0  0  0
    7.4660  -12.3800   23.7130 C   0  0  0  0  0  0  0  0  0  0  0  0
    9.4350  -11.0660   22.9080 C   0  0  0  0  0  0  0  0  0  0  0  0
   10.0610  -15.0100   19.2040 N   0  0  0  0  0  0  0  0  0  0  0  0
   10.9940  -16.0150   18.7060 C   0  0  2  0  0  0  0  0  0  0  0  0
   11.4290  -15.7000   17.2790 C   0  0  0  0  0  0  0  0  0  0  0  0
   11.8060  -16.6000   16.5300 O   0  0  0  0  0  0  0  0  0  0  0  0
   10.3660  -17.4050   18.7570 C   0  0  0  0  0  0  0  0  0  0  0  0
   10.2970  -18.0040   20.1430 C   0  0  0  0  0  0  0  0  0  0  0  0
    9.7220  -19.4060   20.1350 C   0  0  0  0  0  0  0  0  0  0  0  0
    8.8370  -19.7220   19.3380 O   0  0  0  0  0  0  0  0  0  0  0  0
   10.2300  -20.2600   21.0160 N   0  0  0  0  0  0  0  0  0  0  0  0
   11.3750  -14.4160   16.9260 N   0  0  0  0  0  0  0  0  0  0  0  0
   11.7260  -13.9120   15.5930 C   0  0  2  0  0  0  0  0  0  0  0  0
   11.2080  -14.7720   14.4400 C   0  0  0  0  0  0  0  0  0  0  0  0
   10.0020  -14.8390   14.2010 O   0  0  0  0  0  0  0  0  0  0  0  0
   13.2380  -13.6670   15.4650 C   0  0  0  0  0  0  0  0  0  0  0  0
   14.0550  -14.9460   15.5350 C   0  0  0  0  0  0  0  0  0  0  0  0
   14.3870  -15.3810   16.6590 O   0  0  0  0  0  0  0  0  0  0  0  0
   14.3760  -15.5110   14.4670 O   0  0  0  0  0  0  0  0  0  0  0  0
  2  1  1  0
  3  2  1  0
  4  3  2  0
  2  5  1  6
  6  3  1  0
  7  6  1  1
  8  7  1  0
  9  8  2  0
 10  7  1  0
 11 10  1  0
 10 12  1  6
 13 11  1  0
 14  8  1  0
 15 14  1  0
 16 15  1  0
 17 16  2  0
 15 18  1  1
 19 18  1  0
 20 19  1  0
 21 19  1  0
 22 16  1  0
 23 22  1  0
 24 23  1  0
 25 24  2  0
 23 26  1  6
 27 26  1  0
 28 27  1  0
 29 27  2  0
 30 28  2  0
 31 29  1  0
 31 30  1  0
 32 24  1  0
 33 32  1  0
 34 33  1  0
 35 34  2  0
 33 36  1  6
 37 34  1  0
 38 37  1  0
 39 38  1  0
 40 39  2  0
 38 41  1  1
 42 41  1  0
 43 42  1  0
 44 42  1  0
 45 39  1  0
 46 45  1  0
 47 46  1  0
 48 47  2  0
 46 49  1  1
 50 49  1  0
 51 50  1  0
 52 50  1  0
 53 47  1  0
 54 53  1  0
 55 54  1  0
 56 55  2  0
 54 57  1  6
 58 57  1  0
 59 58  1  0
 60 59  2  0
 61 59  1  0
 62 55  1  0
 63 62  1  0
 64 63  1  0
 65 64  2  0
 63 66  1  1
 67 66  1  0
 68 67  2  0
 69 67  1  0
M  END
$$$$
5EGV
     RDKit          3D

 75 75  0  0  0  0  0  0  0  0999 V2000
   -7.3710  -41.0070  -34.5330 N   0  0  0  0  0  0  0  0  0  0  0  0
   -7.1490  -39.6290  -34.1110 C   0  0  2  0  0  0  0  0  0  0  0  0
   -6.2570  -38.8890  -35.1010 C   0  0  0  0  0  0  0  0  0  0  0  0
   -5.1670  -39.3520  -35.4360 O   0  0  0  0  0  0  0  0  0  0  0  0
   -6.5300  -39.5900  -32.7130 C   0  0  0  0  0  0  0  0  0  0  0  0
   -6.7290  -37.7370  -35.5650 N   0  0  0  0  0  0  0  0  0  0  0  0
   -5.9860  -36.9350  -36.5310 C   0  0  2  0  0  0  0  0  0  0  0  0
   -4.7340  -36.3310  -35.9000 C   0  0  0  0  0  0  0  0  0  0  0  0
   -3.6580  -36.3380  -36.5000 O   0  0  0  0  0  0  0  0  0  0  0  0
   -6.8620  -35.8090  -37.1110 C   0  0  2  0  0  0  0  0  0  0  0  0
   -8.1150  -36.3980  -37.7610 C   0  0  0  0  0  0  0  0  0  0  0  0
   -6.0750  -34.9800  -38.1140 C   0  0  0  0  0  0  0  0  0  0  0  0
   -9.0180  -35.3660  -38.4000 C   0  0  0  0  0  0  0  0  0  0  0  0
   -4.8850  -35.8190  -34.6830 N   0  0  0  0  0  0  0  0  0  0  0  0
   -3.7810  -35.1980  -33.9590 C   0  0  2  0  0  0  0  0  0  0  0  0
   -2.6440  -36.1830  -33.7040 C   0  0  0  0  0  0  0  0  0  0  0  0
   -1.4690  -35.8200  -33.7790 O   0  0  0  0  0  0  0  0  0  0  0  0
   -4.2750  -34.6210  -32.6310 C   0  0  0  0  0  0  0  0  0  0  0  0
   -3.2220  -33.9600  -31.7380 C   0  0  0  0  0  0  0  0  0  0  0  0
   -2.7040  -32.6760  -32.3700 C   0  0  0  0  0  0  0  0  0  0  0  0
   -3.7820  -33.6980  -30.3470 C   0  0  0  0  0  0  0  0  0  0  0  0
   -3.0010  -37.4280  -33.4060 N   0  0  0  0  0  0  0  0  0  0  0  0
   -2.0180  -38.4680  -33.1180 C   0  0  2  0  0  0  0  0  0  0  0  0
   -1.1090  -38.7260  -34.3160 C   0  0  0  0  0  0  0  0  0  0  0  0
    0.0960  -38.9230  -34.1600 O   0  0  0  0  0  0  0  0  0  0  0  0
   -2.7220  -39.7610  -32.7010 C   0  0  0  0  0  0  0  0  0  0  0  0
   -1.7860  -40.8740  -32.3470 C   0  0  0  0  0  0  0  0  0  0  0  0
   -1.4090  -41.8450  -33.2470 N   0  0  0  0  0  0  0  0  0  0  0  0
   -1.1520  -41.1690  -31.1860 C   0  0  0  0  0  0  0  0  0  0  0  0
   -0.5820  -42.6930  -32.6580 C   0  0  0  0  0  0  0  0  0  0  0  0
   -0.4120  -42.3060  -31.4090 N   0  0  0  0  0  0  0  0  0  0  0  0
   -1.6980  -38.7190  -35.5090 N   0  0  0  0  0  0  0  0  0  0  0  0
   -0.9550  -38.9100  -36.7510 C   0  0  2  0  0  0  0  0  0  0  0  0
    0.1040  -37.8340  -36.9480 C   0  0  0  0  0  0  0  0  0  0  0  0
    1.2710  -38.1310  -37.2090 O   0  0  0  0  0  0  0  0  0  0  0  0
   -1.9020  -38.9000  -37.9510 C   0  0  0  0  0  0  0  0  0  0  0  0
   -2.7000  -40.1740  -38.1550 C   0  0  0  0  0  0  0  0  0  0  0  0
   -3.5730  -40.0680  -39.4010 C   0  0  0  0  0  0  0  0  0  0  0  0
   -2.8690  -39.4410  -40.5180 N   0  0  0  0  0  0  0  0  0  0  0  0
   -3.2290  -38.2890  -41.0780 C   0  0  0  0  0  0  0  0  0  0  0  0
   -4.2940  -37.6370  -40.6320 N   0  0  0  0  0  0  0  0  0  0  0  0
   -2.5290  -37.7910  -42.0890 N   0  0  0  0  0  0  0  0  0  0  0  0
   -0.2870  -36.5820  -36.8560 N   0  0  0  0  0  0  0  0  0  0  0  0
    0.6210  -35.4810  -37.0830 C   0  0  2  0  0  0  0  0  0  0  0  0
    1.7460  -35.3990  -36.1310 C   0  0  0  0  0  0  0  0  0  0  0  0
    2.8260  -35.0120  -36.4640 O   0  0  0  0  0  0  0  0  0  0  0  0
   -0.1500  -34.1960  -37.0020 C   0  0  0  0  0  0  0  0  0  0  0  0
   -1.4580  -34.2830  -37.7430 C   0  0  0  0  0  0  0  0  0  0  0  0
   -2.2170  -32.9970  -37.6060 C   0  0  0  0  0  0  0  0  0  0  0  0
   -1.1660  -34.5390  -39.1910 C   0  0  0  0  0  0  0  0  0  0  0  0
    1.4910  -35.7420  -34.9100 N   0  0  0  0  0  0  0  0  0  0  0  0
    2.5400  -35.6680  -33.8950 C   0  0  2  0  0  0  0  0  0  0  0  0
    3.6510  -36.6820  -34.1560 C   0  0  0  0  0  0  0  0  0  0  0  0
    4.7330  -36.5960  -33.5750 O   0  0  0  0  0  0  0  0  0  0  0  0
    1.9490  -35.8800  -32.5000 C   0  0  0  0  0  0  0  0  0  0  0  0
    1.0520  -34.7480  -31.9960 C   0  0  0  0  0  0  0  0  0  0  0  0
    0.4650  -35.0780  -30.6340 C   0  0  0  0  0  0  0  0  0  0  0  0
    1.8370  -33.4510  -31.9430 C   0  0  0  0  0  0  0  0  0  0  0  0
    3.3740  -37.6450  -35.0290 N   0  0  0  0  0  0  0  0  0  0  0  0
    4.3830  -38.6050  -35.4620 C   0  0  2  0  0  0  0  0  0  0  0  0
    4.5310  -38.5620  -36.9800 C   0  0  0  0  0  0  0  0  0  0  0  0
    4.7450  -39.5860  -37.6270 O   0  0  0  0  0  0  0  0  0  0  0  0
    4.0250  -40.0180  -34.9930 C   0  0  0  0  0  0  0  0  0  0  0  0
    2.6340  -40.4770  -35.4020 C   0  0  0  0  0  0  0  0  0  0  0  0
    2.2950  -41.8570  -34.8740 C   0  0  0  0  0  0  0  0  0  0  0  0
    1.2570  -42.4250  -35.2130 O   0  0  0  0  0  0  0  0  0  0  0  0
    3.1710  -42.4040  -34.0370 N   0  0  0  0  0  0  0  0  0  0  0  0
    4.4120  -37.3620  -37.5400 N   0  0  0  0  0  0  0  0  0  0  0  0
    4.5030  -37.1690  -38.9830 C   0  0  2  0  0  0  0  0  0  0  0  0
    5.9180  -36.7610  -39.3840 C   0  0  0  0  0  0  0  0  0  0  0  0
    6.8950  -37.1800  -38.7620 O   0  0  0  0  0  0  0  0  0  0  0  0
    3.4920  -36.1140  -39.4440 C   0  0  0  0  0  0  0  0  0  0  0  0
    3.2150  -36.1750  -40.9360 C   0  0  0  0  0  0  0  0  0  0  0  0
    4.0860  -36.6480  -41.6940 O   0  0  0  0  0  0  0  0  0  0  0  0
    2.1170  -35.7470  -41.3510 O   0  0  0  0  0  0  0  0  0  0  0  0
  2  1  1  0
  3  2  1  0
  4  3  2  0
  2  5  1  1
  6  3  1  0
  7  6  1  1
  8  7  1  0
  9  8  2  0
 10  7  1  0
 11 10  1  0
 10 12  1  6
 13 11  1  0
 14  8  1  0
 15 14  1  0
 16 15  1  0
 17 16  2  0
 15 18  1  1
 19 18  1  0
 20 19  1  0
 21 19  1  0
 22 16  1  0
 23 22  1  0
 24 23  1  0
 25 24  2  0
 23 26  1  6
 27 26  1  0
 28 27  1  0
 29 27  2  0
 30 28  2  0
 31 30  1  0
 31 29  1  0
 32 24  1  0
 33 32  1  0
 34 33  1  0
 35 34  2  0
 33 36  1  6
 37 36  1  0
 38 37  1  0
 39 38  1  0
 40 39  1  0
 41 40  1  0
 42 40  2  0
 43 34  1  0
 44 43  1  0
 45 44  1  0
 46 45  2  0
 44 47  1  1
 48 47  1  0
 49 48  1  0
 50 48  1  0
 51 45  1  0
 52 51  1  0
 53 52  1  0
 54 53  2  0
 52 55  1  1
 56 55  1  0
 57 56  1  0
 58 56  1  0
 59 53  1  0
 60 59  1  0
 61 60  1  0
 62 61  2  0
 60 63  1  6
 64 63  1  0
 65 64  1  0
 66 65  2  0
 67 65  1  0
 68 61  1  0
 69 68  1  0
 70 69  1  0
 71 70  2  0
 69 72  1  1
 73 72  1  0
 74 73  2  0
 75 73  1  0
M  END
$$$$
4ZNT
     RDKit          3D

 79 79  0  0  0  0  0  0  0  0999 V2000
  -29.9430   -5.5880   -6.5730 N   0  0  0  0  0  0  0  0  0  0  0  0
  -29.8500   -7.0090   -6.2510 C   0  0  2  0  0  0  0  0  0  0  0  0
  -29.2130   -7.2510   -4.8820 C   0  0  0  0  0  0  0  0  0  0  0  0
  -28.6280   -6.3450   -4.2900 O   0  0  0  0  0  0  0  0  0  0  0  0
  -29.1110   -7.7720   -7.3580 C   0  0  0  0  0  0  0  0  0  0  0  0
  -27.7330   -7.2210   -7.7120 C   0  0  0  0  0  0  0  0  0  0  0  0
  -27.3720   -7.5340   -9.1660 C   0  0  0  0  0  0  0  0  0  0  0  0
  -25.9170   -7.1900   -9.4690 C   0  0  0  0  0  0  0  0  0  0  0  0
  -25.6800   -6.9330  -10.9220 N   0  0  0  0  0  0  0  0  0  0  0  0
  -29.3360   -8.4780   -4.3860 N   0  0  0  0  0  0  0  0  0  0  0  0
  -28.9030   -8.8320   -3.0360 C   0  0  2  0  0  0  0  0  0  0  0  0
  -27.4450   -8.4830   -2.7370 C   0  0  0  0  0  0  0  0  0  0  0  0
  -27.1160   -8.0420   -1.6340 O   0  0  0  0  0  0  0  0  0  0  0  0
  -29.1300  -10.3240   -2.7750 C   0  0  2  0  0  0  0  0  0  0  0  0
  -30.5870  -10.6910   -3.0810 C   0  0  0  0  0  0  0  0  0  0  0  0
  -28.7510  -10.6810   -1.3440 C   0  0  0  0  0  0  0  0  0  0  0  0
  -30.8670  -12.1740   -3.0600 C   0  0  0  0  0  0  0  0  0  0  0  0
  -26.5750   -8.6870   -3.7190 N   0  0  0  0  0  0  0  0  0  0  0  0
  -25.1630   -8.3780   -3.5510 C   0  0  2  0  0  0  0  0  0  0  0  0
  -24.9660   -6.8950   -3.2250 C   0  0  0  0  0  0  0  0  0  0  0  0
  -24.1620   -6.5400   -2.3590 O   0  0  0  0  0  0  0  0  0  0  0  0
  -24.3790   -8.7670   -4.8060 C   0  0  0  0  0  0  0  0  0  0  0  0
  -22.8570   -8.8040   -4.6570 C   0  0  0  0  0  0  0  0  0  0  0  0
  -22.4660   -9.5890   -3.4190 C   0  0  0  0  0  0  0  0  0  0  0  0
  -22.2080   -9.3880   -5.9040 C   0  0  0  0  0  0  0  0  0  0  0  0
  -25.7080   -6.0350   -3.9190 N   0  0  0  0  0  0  0  0  0  0  0  0
  -25.6830   -4.6040   -3.6340 C   0  0  2  0  0  0  0  0  0  0  0  0
  -25.8990   -4.3620   -2.1480 C   0  0  0  0  0  0  0  0  0  0  0  0
  -25.1230   -3.6570   -1.5020 O   0  0  0  0  0  0  0  0  0  0  0  0
  -26.7680   -3.8680   -4.4240 C   0  0  0  0  0  0  0  0  0  0  0  0
  -26.4820   -3.7500   -5.8880 C   0  0  0  0  0  0  0  0  0  0  0  0
  -25.3200   -3.1930   -6.3780 N   0  0  0  0  0  0  0  0  0  0  0  0
  -27.2160   -4.1010   -6.9710 C   0  0  0  0  0  0  0  0  0  0  0  0
  -25.3450   -3.2170   -7.6980 C   0  0  0  0  0  0  0  0  0  0  0  0
  -26.4840   -3.7630   -8.0840 N   0  0  0  0  0  0  0  0  0  0  0  0
  -26.9590   -4.9580   -1.6140 N   0  0  0  0  0  0  0  0  0  0  0  0
  -27.3220   -4.7700   -0.2160 C   0  0  2  0  0  0  0  0  0  0  0  0
  -26.2400   -5.2750    0.7310 C   0  0  0  0  0  0  0  0  0  0  0  0
  -25.8180   -4.5590    1.6380 O   0  0  0  0  0  0  0  0  0  0  0  0
  -28.6560   -5.4570    0.0920 C   0  0  0  0  0  0  0  0  0  0  0  0
  -29.0910   -5.3310    1.5420 C   0  0  0  0  0  0  0  0  0  0  0  0
  -30.5100   -5.8380    1.7500 C   0  0  0  0  0  0  0  0  0  0  0  0
  -30.6380   -7.2660    1.4760 N   0  0  0  0  0  0  0  0  0  0  0  0
  -30.3040   -8.2210    2.3370 C   0  0  0  0  0  0  0  0  0  0  0  0
  -29.8100   -7.8990    3.5250 N   0  0  0  0  0  0  0  0  0  0  0  0
  -30.4570   -9.4970    2.0100 N   0  0  0  0  0  0  0  0  0  0  0  0
  -25.7920   -6.5080    0.5160 N   0  0  0  0  0  0  0  0  0  0  0  0
  -24.8220   -7.1360    1.4080 C   0  0  2  0  0  0  0  0  0  0  0  0
  -23.5020   -6.3740    1.4800 C   0  0  0  0  0  0  0  0  0  0  0  0
  -22.8160   -6.4000    2.5070 O   0  0  0  0  0  0  0  0  0  0  0  0
  -24.5670   -8.5830    0.9880 C   0  0  0  0  0  0  0  0  0  0  0  0
  -25.8120   -9.4690    0.9650 C   0  0  0  0  0  0  0  0  0  0  0  0
  -25.4250  -10.9300    1.1080 C   0  0  0  0  0  0  0  0  0  0  0  0
  -26.7620   -9.0560    2.0800 C   0  0  0  0  0  0  0  0  0  0  0  0
  -23.1490   -5.7050    0.3870 N   0  0  0  0  0  0  0  0  0  0  0  0
  -21.8870   -4.9750    0.3070 C   0  0  2  0  0  0  0  0  0  0  0  0
  -21.8990   -3.6770    1.1160 C   0  0  0  0  0  0  0  0  0  0  0  0
  -20.8550   -3.2120    1.5720 O   0  0  0  0  0  0  0  0  0  0  0  0
  -21.5250   -4.6950   -1.1530 C   0  0  0  0  0  0  0  0  0  0  0  0
  -20.7980   -5.8330   -1.8700 C   0  0  0  0  0  0  0  0  0  0  0  0
  -20.8130   -5.6350   -3.3830 C   0  0  0  0  0  0  0  0  0  0  0  0
  -19.3710   -5.9570   -1.3450 C   0  0  0  0  0  0  0  0  0  0  0  0
  -23.0790   -3.0940    1.2960 N   0  0  0  0  0  0  0  0  0  0  0  0
  -23.1940   -1.8650    2.0730 C   0  0  2  0  0  0  0  0  0  0  0  0
  -23.3590   -2.1460    3.5680 C   0  0  0  0  0  0  0  0  0  0  0  0
  -22.9780   -1.3280    4.4070 O   0  0  0  0  0  0  0  0  0  0  0  0
  -24.3460   -1.0030    1.5560 C   0  0  0  0  0  0  0  0  0  0  0  0
  -24.2390   -0.6620    0.0780 C   0  0  0  0  0  0  0  0  0  0  0  0
  -25.1160    0.5080   -0.3170 C   0  0  0  0  0  0  0  0  0  0  0  0
  -25.1800    1.5170    0.3860 O   0  0  0  0  0  0  0  0  0  0  0  0
  -25.8060    0.3760   -1.4440 N   0  0  0  0  0  0  0  0  0  0  0  0
  -23.9240   -3.3050    3.8940 N   0  0  0  0  0  0  0  0  0  0  0  0
  -24.1360   -3.6880    5.2860 C   0  0  2  0  0  0  0  0  0  0  0  0
  -22.8380   -4.1420    5.9450 C   0  0  0  0  0  0  0  0  0  0  0  0
  -22.8510   -4.6960    7.0450 O   0  0  0  0  0  0  0  0  0  0  0  0
  -25.1910   -4.7920    5.3930 C   0  0  0  0  0  0  0  0  0  0  0  0
  -26.5800   -4.3130    5.0100 C   0  0  0  0  0  0  0  0  0  0  0  0
  -26.8040   -3.0850    4.9890 O   0  0  0  0  0  0  0  0  0  0  0  0
  -27.4500   -5.1660    4.7370 O   0  0  0  0  0  0  0  0  0  0  0  0
  2  1  1  6
  3  2  1  0
  4  3  2  0
  5  2  1  0
  6  5  1  0
  7  6  1  0
  8  7  1  0
  9  8  1  0
 10  3  1  0
 11 10  1  6
 12 11  1  0
 13 12  2  0
 14 11  1  0
 15 14  1  0
 14 16  1  1
 17 15  1  0
 18 12  1  0
 19 18  1  0
 20 19  1  0
 21 20  2  0
 19 22  1  6
 23 22  1  0
 24 23  1  0
 25 23  1  0
 26 20  1  0
 27 26  1  0
 28 27  1  0
 29 28  2  0
 27 30  1  6
 31 30  1  0
 32 31  1  0
 33 31  2  0
 34 32  2  0
 35 34  1  0
 35 33  1  0
 36 28  1  0
 37 36  1  0
 38 37  1  0
 39 38  2  0
 37 40  1  1
 41 40  1  0
 42 41  1  0
 43 42  1  0
 44 43  1  0
 45 44  1  0
 46 44  2  0
 47 38  1  0
 48 47  1  0
 49 48  1  0
 50 49  2  0
 48 51  1  6
 52 51  1  0
 53 52  1  0
 54 52  1  0
 55 49  1  0
 56 55  1  0
 57 56  1  0
 58 57  2  0
 56 59  1  6
 60 59  1  0
 61 60  1  0
 62 60  1  0
 63 57  1  0
 64 63  1  0
 65 64  1  0
 66 65  2  0
 64 67  1  6
 68 67  1  0
 69 68  1  0
 70 69  2  0
 71 69  1  0
 72 65  1  0
 73 72  1  0
 74 73  1  0
 75 74  2  0
 73 76  1  6
 77 76  1  0
 78 77  2  0
 79 77  1  0
M  END
$$$$
5DXB
     RDKit          3D

 20 23  0  0  0  0  0  0  0  0999 V2000
   24.2250   -5.5590    3.9630 C   0  0  0  0  0  0  0  0  0  0  0  0
   23.4420   -5.3190    2.8810 C   0  0  0  0  0  0  0  0  0  0  0  0
   22.0880   -5.4060    2.9460 C   0  0  0  0  0  0  0  0  0  0  0  0
   21.3680   -5.1910    1.8590 O   0  0  0  0  0  0  0  0  0  0  0  0
   21.4950   -5.7260    4.1400 C   0  0  0  0  0  0  0  0  0  0  0  0
   22.2490   -5.9830    5.2510 C   0  0  0  0  0  0  0  0  0  0  0  0
   21.6080   -6.3340    6.5630 C   0  0  0  0  0  0  0  0  0  0  0  0
   22.5300   -7.0320    7.5070 C   0  0  0  0  0  0  0  0  0  0  0  0
   23.7490   -6.1780    7.6900 C   0  0  2  0  0  0  0  0  0  0  0  0
   24.5250   -6.1620    6.3680 C   0  0  1  0  0  0  0  0  0  0  0  0
   23.6960   -5.8900    5.1670 C   0  0  0  0  0  0  0  0  0  0  0  0
   25.7870   -5.3420    6.4710 C   0  0  0  0  0  0  0  0  0  0  0  0
   26.6610   -5.8860    7.5750 C   0  0  0  0  0  0  0  0  0  0  0  0
   25.9020   -5.8510    8.8790 C   0  0  1  0  0  0  0  0  0  0  0  0
   24.6560   -6.6870    8.7840 C   0  0  1  0  0  0  0  0  0  0  0  0
   24.1940   -6.7240   10.2280 C   0  0  0  0  0  0  0  0  0  0  0  0
   25.4820   -6.7170   11.0340 C   0  0  0  0  0  0  0  0  0  0  0  0
   26.6080   -6.5150   10.0320 C   0  0  2  0  0  0  0  0  0  0  0  0
   27.6890   -5.7440   10.5100 O   0  0  0  0  0  0  0  0  0  0  0  0
   25.5650   -4.4270    9.2300 C   0  0  0  0  0  0  0  0  0  0  0  0
  2  1  1  0
  3  2  1  0
  4  3  1  0
  5  3  1  0
  6  5  1  0
  7  6  1  0
  8  7  1  0
  9  8  1  6
 10  9  1  0
 11  6  1  0
 11  1  1  0
 11 10  1  0
 10 12  1  1
 13 12  1  0
 14 13  1  0
 15 14  1  0
 15  9  1  0
 15 16  1  1
 17 16  1  0
 18 14  1  0
 18 17  1  0
 18 19  1  1
 14 20  1  1
M  END
$$$$
8AV3
     RDKit          3D

 42 43  0  0  0  0  0  0  0  0999 V2000
  -12.5470   -8.0510   14.9560 N   0  0  0  0  0  0  0  0  0  0  0  0
  -13.5570   -9.1510   14.8750 C   0  0  2  0  0  0  0  0  0  0  0  0
  -12.9660  -10.3810   14.1910 C   0  0  0  0  0  0  0  0  0  0  0  0
  -12.1220  -10.2550   13.3060 O   0  0  0  0  0  0  0  0  0  0  0  0
  -14.8100   -8.6680   14.1440 C   0  0  0  0  0  0  0  0  0  0  0  0
  -15.6020   -7.6580   14.9250 C   0  0  0  0  0  0  0  0  0  0  0  0
  -16.5460   -8.0710   15.8600 C   0  0  0  0  0  0  0  0  0  0  0  0
  -15.3860   -6.2950   14.7500 C   0  0  0  0  0  0  0  0  0  0  0  0
  -17.2710   -7.1430   16.5910 C   0  0  0  0  0  0  0  0  0  0  0  0
  -16.1080   -5.3630   15.4800 C   0  0  0  0  0  0  0  0  0  0  0  0
  -17.0500   -5.7880   16.4030 C   0  0  0  0  0  0  0  0  0  0  0  0
  -13.3710  -11.6100   14.5860 N   0  0  0  0  0  0  0  0  0  0  0  0
  -12.8060  -12.8240   13.9980 C   0  0  2  0  0  0  0  0  0  0  0  0
  -13.3650  -13.1300   12.6010 C   0  0  0  0  0  0  0  0  0  0  0  0
  -14.4140  -12.6250   12.2560 O   0  0  0  0  0  0  0  0  0  0  0  0
  -13.1930  -13.9090   15.0140 C   0  0  0  0  0  0  0  0  0  0  0  0
  -14.4870  -13.4070   15.6190 C   0  0  0  0  0  0  0  0  0  0  0  0
  -14.3640  -11.8970   15.6370 C   0  0  0  0  0  0  0  0  0  0  0  0
  -12.6360  -13.9430   11.8310 N   0  0  0  0  0  0  0  0  0  0  0  0
  -13.0270  -14.3220   10.4900 C   0  0  2  0  0  0  0  0  0  0  0  0
  -14.1600  -15.3540   10.4840 C   0  0  0  0  0  0  0  0  0  0  0  0
  -14.1230  -16.3410   11.2120 O   0  0  0  0  0  0  0  0  0  0  0  0
  -11.8270  -14.8600    9.7310 C   0  0  0  0  0  0  0  0  0  0  0  0
  -15.1600  -15.1050    9.6330 N   0  0  0  0  0  0  0  0  0  0  0  0
  -16.2230  -16.0680    9.2540 C   0  0  1  0  0  0  0  0  0  0  0  0
  -17.5490  -15.7540    9.9600 C   0  0  1  0  0  0  0  0  0  0  0  0
  -17.4710  -15.9240   11.4590 C   0  0  0  0  0  0  0  0  0  0  0  0
  -17.8610  -14.3550    9.6700 O   0  0  0  0  0  0  0  0  0  0  0  0
  -19.2910  -13.7170    9.9940 P   0  0  0  0  0  0  0  0  0  0  0  0
  -19.3680  -12.4940    9.1010 O   0  0  0  0  0  0  0  0  0  0  0  0
  -19.2700  -13.3680   11.4700 O   0  0  0  0  0  0  0  0  0  0  0  0
  -20.3340  -14.7590    9.6420 O   0  0  0  0  0  0  0  0  0  0  0  0
  -16.3920  -16.0370    7.7360 C   0  0  0  0  0  0  0  0  0  0  0  0
  -15.9400  -15.0460    7.1010 O   0  0  0  0  0  0  0  0  0  0  0  0
  -17.0080  -17.0790    7.1830 N   0  0  0  0  0  0  0  0  0  0  0  0
  -17.2360  -17.1750    5.7480 C   0  0  2  0  0  0  0  0  0  0  0  0
  -18.6750  -17.5130    5.4670 C   0  0  0  0  0  0  0  0  0  0  0  0
  -19.4310  -17.8880    6.3780 O   0  0  0  0  0  0  0  0  0  0  0  0
  -16.3280  -18.2230    5.0700 C   0  0  0  0  0  0  0  0  0  0  0  0
  -14.8780  -17.8230    5.2120 C   0  0  0  0  0  0  0  0  0  0  0  0
  -16.5680  -19.6240    5.6330 C   0  0  0  0  0  0  0  0  0  0  0  0
  -19.0770  -17.4250    4.3030 O   0  0  0  0  0  0  0  0  0  0  0  0
  2  1  1  6
  3  2  1  0
  4  3  2  0
  5  2  1  0
  6  5  1  0
  7  6  2  0
  8  6  1  0
  9  7  1  0
 10  8  2  0
 11  9  2  0
 11 10  1  0
 12  3  1  0
 13 12  1  0
 13 14  1  6
 15 14  2  0
 16 13  1  0
 17 16  1  0
 18 17  1  0
 18 12  1  0
 19 14  1  0
 20 19  1  0
 21 20  1  0
 22 21  2  0
 20 23  1  1
 24 21  1  0
 25 24  1  6
 26 25  1  0
 26 27  1  1
 28 26  1  0
 29 28  1  0
 30 29  1  0
 31 29  1  0
 32 29  1  0
 33 25  1  0
 34 33  1  0
 35 33  1  0
 36 35  1  1
 37 36  1  0
 38 37  2  0
 39 36  1  0
 40 39  1  0
 41 39  1  0
 42 37  1  0
M  END
$$$$
5DTV
     RDKit          3D

 62 62  0  0  0  0  0  0  0  0999 V2000
   29.8290   17.4790    6.3940 N   0  0  0  0  0  0  0  0  0  0  0  0
   29.1660   16.1950    6.1950 C   0  0  2  0  0  0  0  0  0  0  0  0
   28.7410   16.0170    4.7360 C   0  0  0  0  0  0  0  0  0  0  0  0
   28.6540   16.9870    3.9830 O   0  0  0  0  0  0  0  0  0  0  0  0
   27.9590   16.0690    7.1280 C   0  0  0  0  0  0  0  0  0  0  0  0
   28.4810   14.7710    4.3470 N   0  0  0  0  0  0  0  0  0  0  0  0
   28.1660   14.4390    2.9590 C   0  0  2  0  0  0  0  0  0  0  0  0
   26.7300   14.7980    2.6000 C   0  0  0  0  0  0  0  0  0  0  0  0
   26.4590   15.2780    1.4970 O   0  0  0  0  0  0  0  0  0  0  0  0
   28.3980   12.9410    2.6780 C   0  0  2  0  0  0  0  0  0  0  0  0
   29.8860   12.6090    2.7840 C   0  0  0  0  0  0  0  0  0  0  0  0
   27.8810   12.5600    1.2990 C   0  0  0  0  0  0  0  0  0  0  0  0
   30.2200   11.1830    2.4110 C   0  0  0  0  0  0  0  0  0  0  0  0
   25.8180   14.5620    3.5380 N   0  0  0  0  0  0  0  0  0  0  0  0
   24.4120   14.9150    3.3670 C   0  0  2  0  0  0  0  0  0  0  0  0
   24.2780   16.3650    2.8990 C   0  0  0  0  0  0  0  0  0  0  0  0
   23.4510   16.6860    2.0520 O   0  0  0  0  0  0  0  0  0  0  0  0
   23.6530   14.6990    4.6780 C   0  0  0  0  0  0  0  0  0  0  0  0
   22.1460   14.9610    4.7390 C   0  0  0  0  0  0  0  0  0  0  0  0
   21.4160   14.1660    3.6740 C   0  0  0  0  0  0  0  0  0  0  0  0
   21.6090   14.6070    6.1180 C   0  0  0  0  0  0  0  0  0  0  0  0
   25.1260   17.2250    3.4470 N   0  0  0  0  0  0  0  0  0  0  0  0
   25.1800   18.6310    3.0750 C   0  0  2  0  0  0  0  0  0  0  0  0
   25.2840   18.8730    1.5800 C   0  0  0  0  0  0  0  0  0  0  0  0
   24.4880   19.6060    0.9900 O   0  0  0  0  0  0  0  0  0  0  0  0
   26.3780   19.2750    3.7520 C   0  0  0  0  0  0  0  0  0  0  0  0
   26.1640   19.5670    5.1970 C   0  0  0  0  0  0  0  0  0  0  0  0
   26.8530   18.9070    6.1950 N   0  0  0  0  0  0  0  0  0  0  0  0
   25.4020   20.4930    5.8180 C   0  0  0  0  0  0  0  0  0  0  0  0
   26.4750   19.3760    7.3690 C   0  0  0  0  0  0  0  0  0  0  0  0
   25.6010   20.3470    7.1660 N   0  0  0  0  0  0  0  0  0  0  0  0
   26.2930   18.2560    0.9840 N   0  0  0  0  0  0  0  0  0  0  0  0
   26.6200   18.4830   -0.4090 C   0  0  2  0  0  0  0  0  0  0  0  0
   25.5250   17.9500   -1.3230 C   0  0  0  0  0  0  0  0  0  0  0  0
   25.2100   18.5570   -2.3460 O   0  0  0  0  0  0  0  0  0  0  0  0
   27.9640   17.8310   -0.7500 C   0  0  0  0  0  0  0  0  0  0  0  0
   24.9350   16.8230   -0.9400 N   0  0  0  0  0  0  0  0  0  0  0  0
   23.9070   16.1830   -1.7510 C   0  0  2  0  0  0  0  0  0  0  0  0
   22.5980   16.9690   -1.7420 C   0  0  0  0  0  0  0  0  0  0  0  0
   21.8090   16.8860   -2.6830 O   0  0  0  0  0  0  0  0  0  0  0  0
   23.6640   14.7520   -1.2650 C   0  0  0  0  0  0  0  0  0  0  0  0
   24.8450   13.7910   -1.4260 C   0  0  0  0  0  0  0  0  0  0  0  0
   24.5000   12.4120   -0.8890 C   0  0  0  0  0  0  0  0  0  0  0  0
   25.2740   13.7070   -2.8830 C   0  0  0  0  0  0  0  0  0  0  0  0
   22.3750   17.7350   -0.6780 N   0  0  0  0  0  0  0  0  0  0  0  0
   21.1510   18.5190   -0.5370 C   0  0  2  0  0  0  0  0  0  0  0  0
   21.2640   19.8990   -1.1810 C   0  0  0  0  0  0  0  0  0  0  0  0
   20.2740   20.6220   -1.2880 O   0  0  0  0  0  0  0  0  0  0  0  0
   20.7870   18.6710    0.9420 C   0  0  0  0  0  0  0  0  0  0  0  0
   20.0110   17.5280    1.5970 C   0  0  0  0  0  0  0  0  0  0  0  0
   19.9990   17.6940    3.1070 C   0  0  0  0  0  0  0  0  0  0  0  0
   18.5920   17.4750    1.0560 C   0  0  0  0  0  0  0  0  0  0  0  0
   22.4700   20.2590   -1.6100 N   0  0  0  0  0  0  0  0  0  0  0  0
   22.7150   21.5890   -2.1590 C   0  0  2  0  0  0  0  0  0  0  0  0
   22.7680   21.5880   -3.6850 C   0  0  0  0  0  0  0  0  0  0  0  0
   22.6170   22.6320   -4.3190 O   0  0  0  0  0  0  0  0  0  0  0  0
   24.0180   22.1620   -1.5960 C   0  0  0  0  0  0  0  0  0  0  0  0
   22.9820   20.4140   -4.2710 N   0  0  0  0  0  0  0  0  0  0  0  0
   23.0680   20.2920   -5.7220 C   0  0  2  0  0  0  0  0  0  0  0  0
   21.7120   19.9490   -6.3310 C   0  0  0  0  0  0  0  0  0  0  0  0
   21.3500   18.7780   -6.4460 O   0  0  0  0  0  0  0  0  0  0  0  0
   24.1010   19.2320   -6.1100 C   0  0  0  0  0  0  0  0  0  0  0  0
  2  1  1  0
  3  2  1  0
  4  3  2  0
  2  5  1  1
  6  3  1  0
  7  6  1  1
  8  7  1  0
  9  8  2  0
 10  7  1  0
 11 10  1  0
 10 12  1  6
 13 11  1  0
 14  8  1  0
 15 14  1  0
 16 15  1  0
 17 16  2  0
 15 18  1  1
 19 18  1  0
 20 19  1  0
 21 19  1  0
 22 16  1  0
 23 22  1  0
 24 23  1  0
 25 24  2  0
 23 26  1  1
 27 26  1  0
 28 27  1  0
 29 27  2  0
 30 28  2  0
 31 30  1  0
 31 29  1  0
 32 24  1  0
 33 32  1  0
 34 33  1  0
 35 34  2  0
 33 36  1  6
 37 34  1  0
 38 37  1  0
 39 38  1  0
 40 39  2  0
 38 41  1  1
 42 41  1  0
 43 42  1  0
 44 42  1  0
 45 39  1  0
 46 45  1  0
 47 46  1  0
 48 47  2  0
 46 49  1  1
 50 49  1  0
 51 50  1  0
 52 50  1  0
 53 47  1  0
 54 53  1  0
 55 54  1  0
 56 55  2  0
 54 57  1  1
 58 55  1  0
 59 58  1  0
 60 59  1  0
 61 60  2  0
 59 62  1  1
M  END
$$$$
7BA5
     RDKit          3D

 46 47  0  0  0  0  0  0  0  0999 V2000
   14.8590    5.0240   15.8730 N   0  0  0  0  0  0  0  0  0  0  0  0
   14.0200    5.9080   15.0850 C   0  0  0  0  0  0  0  0  0  0  0  0
   14.6680    7.2470   14.7920 C   0  0  0  0  0  0  0  0  0  0  0  0
   15.4020    7.7890   15.6210 O   0  0  0  0  0  0  0  0  0  0  0  0
   14.3880    7.7820   13.6050 N   0  0  0  0  0  0  0  0  0  0  0  0
   14.9540    9.0500   13.1610 C   0  0  2  0  0  0  0  0  0  0  0  0
   13.8340   10.0770   13.0620 C   0  0  0  0  0  0  0  0  0  0  0  0
   12.9650    9.9360   12.1840 O   0  0  0  0  0  0  0  0  0  0  0  0
   15.5850    8.8690   11.7740 C   0  0  0  0  0  0  0  0  0  0  0  0
   16.8910    8.1090   11.7600 C   0  0  0  0  0  0  0  0  0  0  0  0
   18.0980    8.7830   11.6360 C   0  0  0  0  0  0  0  0  0  0  0  0
   16.9090    6.7230   11.8130 C   0  0  0  0  0  0  0  0  0  0  0  0
   19.3010    8.0940   11.5980 C   0  0  0  0  0  0  0  0  0  0  0  0
   18.1120    6.0220   11.7770 C   0  0  0  0  0  0  0  0  0  0  0  0
   19.3100    6.7090   11.6670 C   0  0  0  0  0  0  0  0  0  0  0  0
   13.7970   11.1320   13.8870 N   0  0  0  0  0  0  0  0  0  0  0  0
   12.9980   12.3020   13.5050 C   0  0  2  0  0  0  0  0  0  0  0  0
   13.5200   12.8250   12.1770 C   0  0  0  0  0  0  0  0  0  0  0  0
   14.6130   12.4760   11.7280 O   0  0  0  0  0  0  0  0  0  0  0  0
   13.2390   13.3050   14.6430 C   0  0  0  0  0  0  0  0  0  0  0  0
   14.5120   12.8590   15.2770 C   0  0  0  0  0  0  0  0  0  0  0  0
   14.5460   11.3620   15.1340 C   0  0  0  0  0  0  0  0  0  0  0  0
   12.7110   13.6480   11.5230 N   0  0  0  0  0  0  0  0  0  0  0  0
   13.0560   14.1070   10.1900 C   0  0  2  0  0  0  0  0  0  0  0  0
   14.1940   15.1290   10.2210 C   0  0  0  0  0  0  0  0  0  0  0  0
   14.1500   16.0920   10.9830 O   0  0  0  0  0  0  0  0  0  0  0  0
   11.8320   14.7100    9.4990 C   0  0  0  0  0  0  0  0  0  0  0  0
   15.2050   14.9010    9.3780 N   0  0  0  0  0  0  0  0  0  0  0  0
   16.2700   15.8680    9.0930 C   0  0  1  0  0  0  0  0  0  0  0  0
   17.5820   15.5440    9.8600 C   0  0  1  0  0  0  0  0  0  0  0  0
   17.4210   15.7080   11.3780 C   0  0  0  0  0  0  0  0  0  0  0  0
   17.8660   14.1920    9.4630 O   0  0  0  0  0  0  0  0  0  0  0  0
   19.3190   13.5820    9.8580 P   0  0  0  0  0  0  0  0  0  0  0  0
   19.4040   12.3010    8.8930 O   0  0  0  0  0  0  0  0  0  0  0  0
   19.3450   13.1860   11.2800 O   0  0  0  0  0  0  0  0  0  0  0  0
   20.4480   14.6530    9.5240 O   0  0  0  0  0  0  0  0  0  0  0  0
   16.5120   15.8790    7.5790 C   0  0  0  0  0  0  0  0  0  0  0  0
   16.1700   14.9050    6.8770 O   0  0  0  0  0  0  0  0  0  0  0  0
   17.0510   16.9860    7.0730 N   0  0  0  0  0  0  0  0  0  0  0  0
   17.3900   17.0960    5.6470 C   0  0  2  0  0  0  0  0  0  0  0  0
   18.8530   17.4120    5.4070 C   0  0  0  0  0  0  0  0  0  0  0  0
   19.5910   17.8040    6.3060 O   0  0  0  0  0  0  0  0  0  0  0  0
   16.5170   18.1170    4.9000 C   0  0  0  0  0  0  0  0  0  0  0  0
   15.0680   17.7050    4.9440 C   0  0  0  0  0  0  0  0  0  0  0  0
   16.6860   19.4870    5.5040 C   0  0  0  0  0  0  0  0  0  0  0  0
   19.3180   17.3020    4.2670 O   0  0  0  0  0  0  0  0  0  0  0  0
  2  1  1  0
  3  2  1  0
  4  3  2  0
  5  3  1  0
  6  5  1  0
  7  6  1  0
  8  7  2  0
  6  9  1  6
 10  9  1  0
 11 10  2  0
 12 10  1  0
 13 11  1  0
 14 12  2  0
 15 14  1  0
 15 13  2  0
 16  7  1  0
 17 16  1  0
 17 18  1  6
 19 18  2  0
 20 17  1  0
 21 20  1  0
 22 21  1  0
 22 16  1  0
 23 18  1  0
 24 23  1  0
 25 24  1  0
 26 25  2  0
 24 27  1  1
 28 25  1  0
 29 28  1  6
 30 29  1  0
 30 31  1  1
 32 30  1  0
 33 32  1  0
 34 33  1  0
 35 33  1  0
 36 33  1  0
 37 29  1  0
 38 37  1  0
 39 37  1  0
 40 39  1  1
 41 40  1  0
 42 41  2  0
 43 40  1  0
 44 43  1  0
 45 43  1  0
 46 41  1  0
M  END
$$$$
2QXS
     RDKit          3D

 23 23  0  0  0  0  0  0  0  0999 V2000
   59.2980   -2.3000    6.2920 N   0  0  0  0  0  0  0  0  0  0  0  0
   57.9850   -2.6830    5.7730 C   0  0  2  0  0  0  0  0  0  0  0  0
   58.1110   -3.4600    4.4570 C   0  0  0  0  0  0  0  0  0  0  0  0
   59.1750   -3.4200    3.8230 O   0  0  0  0  0  0  0  0  0  0  0  0
   57.0990   -1.4480    5.5950 C   0  0  0  0  0  0  0  0  0  0  0  0
   57.0400   -4.1740    4.0320 N   0  0  0  0  0  0  0  0  0  0  0  0
   55.7100   -4.4470    4.5940 C   0  0  2  0  0  0  0  0  0  0  0  0
   55.6950   -5.3580    5.8160 C   0  0  0  0  0  0  0  0  0  0  0  0
   56.5110   -5.1950    6.7240 O   0  0  0  0  0  0  0  0  0  0  0  0
   54.9730   -5.1550    3.4410 C   0  0  0  0  0  0  0  0  0  0  0  0
   55.7420   -4.8960    2.2530 C   0  0  0  0  0  0  0  0  0  0  0  0
   57.1660   -4.7920    2.7050 C   0  0  0  0  0  0  0  0  0  0  0  0
   54.7620   -6.3110    5.8200 N   0  0  0  0  0  0  0  0  0  0  0  0
   54.4000   -7.0580    7.0200 C   0  0  2  0  0  0  0  0  0  0  0  0
   53.6690   -8.3580    6.7010 C   0  0  0  0  0  0  0  0  0  0  0  0
   52.7130   -8.3720    5.9150 O   0  0  0  0  0  0  0  0  0  0  0  0
   53.5350   -6.1860    7.9340 C   0  0  0  0  0  0  0  0  0  0  0  0
   54.1340   -9.4390    7.3370 N   0  0  0  0  0  0  0  0  0  0  0  0
   53.5240  -10.7650    7.2500 C   0  0  2  0  0  0  0  0  0  0  0  0
   52.2780  -10.8620    8.1310 C   0  0  0  0  0  0  0  0  0  0  0  0
   52.0550   -9.9740    8.9700 O   0  0  0  0  0  0  0  0  0  0  0  0
   54.5340  -11.8360    7.6960 C   0  0  0  0  0  0  0  0  0  0  0  0
   54.8890  -11.6560    9.0610 O   0  0  0  0  0  0  0  0  0  0  0  0
  2  1  1  0
  3  2  1  0
  4  3  2  0
  2  5  1  6
  6  3  1  0
  7  6  1  0
  7  8  1  1
  9  8  2  0
 10  7  1  0
 11 10  1  0
 12 11  1  0
 12  6  1  0
 13  8  1  0
 14 13  1  0
 15 14  1  0
 16 15  2  0
 14 17  1  1
 18 15  1  0
 19 18  1  0
 20 19  1  0
 21 20  2  0
 19 22  1  1
 23 22  1  0
M  END
$$$$
1X7R
     RDKit          3D

 20 22  0  0  0  0  0  0  0  0999 V2000
   17.1540   31.9200   25.8150 C   0  0  0  0  0  0  0  0  0  0  0  0
   17.7070   33.1970   26.1030 C   0  0  0  0  0  0  0  0  0  0  0  0
   18.2780   33.3320   27.3670 O   0  0  0  0  0  0  0  0  0  0  0  0
   17.7040   34.3040   25.1930 C   0  0  0  0  0  0  0  0  0  0  0  0
   17.1140   34.1500   23.8990 C   0  0  0  0  0  0  0  0  0  0  0  0
   17.0820   35.1890   22.9880 O   0  0  0  0  0  0  0  0  0  0  0  0
   16.5400   32.8450   23.5790 C   0  0  0  0  0  0  0  0  0  0  0  0
   15.9120   32.6250   22.2390 C   0  0  0  0  0  0  0  0  0  0  0  0
   15.8430   33.4840   21.3710 O   0  0  0  0  0  0  0  0  0  0  0  0
   15.3580   31.2140   22.0270 C   0  0  0  0  0  0  0  0  0  0  0  0
   15.4410   30.2340   23.0300 C   0  0  0  0  0  0  0  0  0  0  0  0
   16.0360   30.4740   24.2960 O   0  0  0  0  0  0  0  0  0  0  0  0
   16.5550   31.7350   24.5220 C   0  0  0  0  0  0  0  0  0  0  0  0
   14.6820   30.7120   20.7190 C   0  0  0  0  0  0  0  0  0  0  0  0
   15.2530   31.1030   19.4560 C   0  0  0  0  0  0  0  0  0  0  0  0
   14.6080   30.5730   18.2940 C   0  0  0  0  0  0  0  0  0  0  0  0
   13.5010   29.7340   18.4320 C   0  0  0  0  0  0  0  0  0  0  0  0
   12.9460   29.2580   17.2410 O   0  0  0  0  0  0  0  0  0  0  0  0
   12.8950   29.3240   19.6740 C   0  0  0  0  0  0  0  0  0  0  0  0
   13.5350   29.8510   20.8720 C   0  0  0  0  0  0  0  0  0  0  0  0
  2  1  1  0
  3  2  1  0
  4  2  1  0
  5  4  1  0
  6  5  1  0
  7  5  1  0
  8  7  1  0
  9  8  1  0
 10  8  1  0
 11 10  1  0
 12 11  1  0
 13 12  1  0
 13  1  1  0
 13  7  1  0
 14 10  1  0
 15 14  1  0
 16 15  1  0
 17 16  1  0
 18 17  1  0
 19 17  1  0
 20 19  1  0
 20 14  1  0
M  END
$$$$
5DMC
     RDKit          3D

 75 75  0  0  0  0  0  0  0  0999 V2000
   -7.0770  -40.4150  -34.9420 N   0  0  0  0  0  0  0  0  0  0  0  0
   -6.7420  -39.1080  -34.3920 C   0  0  2  0  0  0  0  0  0  0  0  0
   -5.7530  -38.3750  -35.2900 C   0  0  0  0  0  0  0  0  0  0  0  0
   -4.5600  -38.6730  -35.2900 O   0  0  0  0  0  0  0  0  0  0  0  0
   -6.1680  -39.2500  -32.9810 C   0  0  0  0  0  0  0  0  0  0  0  0
   -6.2630  -37.4110  -36.0510 N   0  0  0  0  0  0  0  0  0  0  0  0
   -5.4540  -36.6360  -36.9870 C   0  0  2  0  0  0  0  0  0  0  0  0
   -4.3300  -35.8810  -36.2690 C   0  0  0  0  0  0  0  0  0  0  0  0
   -3.2920  -35.5820  -36.8590 O   0  0  0  0  0  0  0  0  0  0  0  0
   -6.3430  -35.6470  -37.7830 C   0  0  2  0  0  0  0  0  0  0  0  0
   -5.5090  -34.7870  -38.7380 C   0  0  0  0  0  0  0  0  0  0  0  0
   -7.1660  -34.7870  -36.8370 C   0  0  0  0  0  0  0  0  0  0  0  0
   -6.3240  -33.7840  -39.5250 C   0  0  0  0  0  0  0  0  0  0  0  0
   -4.5270  -35.6000  -34.9840 N   0  0  0  0  0  0  0  0  0  0  0  0
   -3.5040  -34.9300  -34.1890 C   0  0  2  0  0  0  0  0  0  0  0  0
   -2.2630  -35.8070  -34.0320 C   0  0  0  0  0  0  0  0  0  0  0  0
   -1.1590  -35.3010  -33.8330 O   0  0  0  0  0  0  0  0  0  0  0  0
   -4.0590  -34.5440  -32.8160 C   0  0  0  0  0  0  0  0  0  0  0  0
   -3.1380  -33.7160  -31.9160 C   0  0  0  0  0  0  0  0  0  0  0  0
   -2.6040  -32.5030  -32.6600 C   0  0  0  0  0  0  0  0  0  0  0  0
   -3.8660  -33.2890  -30.6540 C   0  0  0  0  0  0  0  0  0  0  0  0
   -2.4470  -37.1220  -34.1190 N   0  0  0  0  0  0  0  0  0  0  0  0
   -1.3150  -38.0440  -34.1220 C   0  0  2  0  0  0  0  0  0  0  0  0
   -0.4740  -37.8420  -35.3760 C   0  0  0  0  0  0  0  0  0  0  0  0
    0.7460  -37.9970  -35.3380 O   0  0  0  0  0  0  0  0  0  0  0  0
   -1.7800  -39.4990  -34.0240 C   0  0  0  0  0  0  0  0  0  0  0  0
   -2.0060  -39.9710  -32.6210 C   0  0  0  0  0  0  0  0  0  0  0  0
   -3.0580  -39.5330  -31.8470 N   0  0  0  0  0  0  0  0  0  0  0  0
   -1.3150  -40.8480  -31.8540 C   0  0  0  0  0  0  0  0  0  0  0  0
   -3.0060  -40.1180  -30.6630 C   0  0  0  0  0  0  0  0  0  0  0  0
   -1.9570  -40.9200  -30.6420 N   0  0  0  0  0  0  0  0  0  0  0  0
   -1.1210  -37.5030  -36.4900 N   0  0  0  0  0  0  0  0  0  0  0  0
   -0.3810  -37.0650  -37.6650 C   0  0  2  0  0  0  0  0  0  0  0  0
    0.2640  -35.7470  -37.2770 C   0  0  0  0  0  0  0  0  0  0  0  0
   -0.2020  -35.1070  -36.3370 O   0  0  0  0  0  0  0  0  0  0  0  0
   -1.2800  -36.8980  -38.8940 C   0  0  0  0  0  0  0  0  0  0  0  0
   -0.4940  -36.6710  -40.1810 C   0  0  0  0  0  0  0  0  0  0  0  0
   -1.3750  -36.4290  -41.3930 C   0  0  0  0  0  0  0  0  0  0  0  0
   -2.5510  -37.2860  -41.4260 N   0  0  0  0  0  0  0  0  0  0  0  0
   -3.5970  -37.0680  -42.2140 C   0  0  0  0  0  0  0  0  0  0  0  0
   -3.6080  -36.0210  -43.0310 N   0  0  0  0  0  0  0  0  0  0  0  0
   -4.6330  -37.8920  -42.1810 N   0  0  0  0  0  0  0  0  0  0  0  0
    1.3350  -35.3670  -37.9770 N   0  0  0  0  0  0  0  0  0  0  0  0
    2.0900  -34.1290  -37.7390 C   0  0  2  0  0  0  0  0  0  0  0  0
    2.9890  -34.2480  -36.5260 C   0  0  0  0  0  0  0  0  0  0  0  0
    4.1120  -33.7490  -36.5270 O   0  0  0  0  0  0  0  0  0  0  0  0
    1.1570  -32.9260  -37.5800 C   0  0  0  0  0  0  0  0  0  0  0  0
    0.3510  -32.6540  -38.8540 C   0  0  0  0  0  0  0  0  0  0  0  0
   -0.8850  -31.8450  -38.5390 C   0  0  0  0  0  0  0  0  0  0  0  0
    1.2100  -31.9750  -39.9690 C   0  0  0  0  0  0  0  0  0  0  0  0
    2.4920  -34.9280  -35.5010 N   0  0  0  0  0  0  0  0  0  0  0  0
    3.2090  -35.0610  -34.2450 C   0  0  2  0  0  0  0  0  0  0  0  0
    4.2350  -36.1870  -34.3020 C   0  0  0  0  0  0  0  0  0  0  0  0
    5.0980  -36.2880  -33.4330 O   0  0  0  0  0  0  0  0  0  0  0  0
    2.2240  -35.2940  -33.0970 C   0  0  0  0  0  0  0  0  0  0  0  0
    1.6390  -34.0430  -32.4380 C   0  0  0  0  0  0  0  0  0  0  0  0
    0.6530  -34.4270  -31.3460 C   0  0  0  0  0  0  0  0  0  0  0  0
    2.7560  -33.1830  -31.8700 C   0  0  0  0  0  0  0  0  0  0  0  0
    4.1380  -37.0320  -35.3250 N   0  0  0  0  0  0  0  0  0  0  0  0
    5.1150  -38.1010  -35.5290 C   0  0  2  0  0  0  0  0  0  0  0  0
    5.8970  -37.8770  -36.8170 C   0  0  0  0  0  0  0  0  0  0  0  0
    6.9070  -38.5380  -37.0570 O   0  0  0  0  0  0  0  0  0  0  0  0
    4.4340  -39.4710  -35.5850 C   0  0  0  0  0  0  0  0  0  0  0  0
    3.4850  -39.7750  -34.4480 C   0  0  0  0  0  0  0  0  0  0  0  0
    2.6920  -41.0390  -34.7050 C   0  0  0  0  0  0  0  0  0  0  0  0
    2.5930  -41.9110  -33.8430 O   0  0  0  0  0  0  0  0  0  0  0  0
    2.1240  -41.1450  -35.9010 N   0  0  0  0  0  0  0  0  0  0  0  0
    5.4130  -36.9550  -37.6460 N   0  0  0  0  0  0  0  0  0  0  0  0
    6.0380  -36.6620  -38.9330 C   0  0  2  0  0  0  0  0  0  0  0  0
    7.4980  -36.2490  -38.7740 C   0  0  0  0  0  0  0  0  0  0  0  0
    8.4000  -36.9320  -39.2590 O   0  0  0  0  0  0  0  0  0  0  0  0
    5.2660  -35.5640  -39.6690 C   0  0  0  0  0  0  0  0  0  0  0  0
    4.0090  -36.0820  -40.3430 C   0  0  0  0  0  0  0  0  0  0  0  0
    3.3390  -36.9660  -39.7700 O   0  0  0  0  0  0  0  0  0  0  0  0
    3.6940  -35.6030  -41.4530 O   0  0  0  0  0  0  0  0  0  0  0  0
  2  1  1  0
  3  2  1  0
  4  3  2  0
  2  5  1  1
  6  3  1  0
  7  6  1  1
  8  7  1  0
  9  8  2  0
 10  7  1  0
 11 10  1  0
 10 12  1  1
 13 11  1  0
 14  8  1  0
 15 14  1  0
 16 15  1  0
 17 16  2  0
 15 18  1  1
 19 18  1  0
 20 19  1  0
 21 19  1  0
 22 16  1  0
 23 22  1  0
 24 23  1  0
 25 24  2  0
 23 26  1  6
 27 26  1  0
 28 27  1  0
 29 27  2  0
 30 28  2  0
 31 30  1  0
 31 29  1  0
 32 24  1  0
 33 32  1  0
 34 33  1  0
 35 34  2  0
 33 36  1  6
 37 36  1  0
 38 37  1  0
 39 38  1  0
 40 39  1  0
 41 40  1  0
 42 40  2  0
 43 34  1  0
 44 43  1  0
 45 44  1  0
 46 45  2  0
 44 47  1  1
 48 47  1  0
 49 48  1  0
 50 48  1  0
 51 45  1  0
 52 51  1  0
 53 52  1  0
 54 53  2  0
 52 55  1  1
 56 55  1  0
 57 56  1  0
 58 56  1  0
 59 53  1  0
 60 59  1  0
 61 60  1  0
 62 61  2  0
 60 63  1  6
 64 63  1  0
 65 64  1  0
 66 65  2  0
 67 65  1  0
 68 61  1  0
 69 68  1  0
 70 69  1  0
 71 70  2  0
 69 72  1  1
 73 72  1  0
 74 73  2  0
 75 73  1  0
M  END
$$$$
1X7E
     RDKit          3D

 20 22  0  0  0  0  0  0  0  0999 V2000
   23.7510   19.5780   26.0370 C   0  0  0  0  0  0  0  0  0  0  0  0
   24.1800   18.8920   24.8340 C   0  0  0  0  0  0  0  0  0  0  0  0
   25.4350   19.2420   24.2230 C   0  0  0  0  0  0  0  0  0  0  0  0
   26.2970   20.2860   24.7920 C   0  0  0  0  0  0  0  0  0  0  0  0
   25.8530   20.9610   25.9920 C   0  0  0  0  0  0  0  0  0  0  0  0
   24.5880   20.6100   26.6130 C   0  0  0  0  0  0  0  0  0  0  0  0
   26.0430   18.7450   23.1120 O   0  0  0  0  0  0  0  0  0  0  0  0
   27.2080   19.4080   22.9630 C   0  0  0  0  0  0  0  0  0  0  0  0
   27.4370   20.3890   23.9720 C   0  0  0  0  0  0  0  0  0  0  0  0
   24.1640   21.2530   27.7500 O   0  0  0  0  0  0  0  0  0  0  0  0
   23.2770   17.8010   24.2280 C   0  0  0  0  0  0  0  0  0  0  0  0
   23.9710   16.5070   23.9890 C   0  0  0  0  0  0  0  0  0  0  0  0
   24.5630   15.5320   23.8230 N   0  0  0  0  0  0  0  0  0  0  0  0
   28.1190   19.0820   21.7990 C   0  0  0  0  0  0  0  0  0  0  0  0
   27.5770   18.2830   20.7020 C   0  0  0  0  0  0  0  0  0  0  0  0
   28.3860   17.9570   19.5580 C   0  0  0  0  0  0  0  0  0  0  0  0
   29.7410   18.4300   19.5040 C   0  0  0  0  0  0  0  0  0  0  0  0
   30.3120   19.2210   20.5820 C   0  0  0  0  0  0  0  0  0  0  0  0
   29.5070   19.5480   21.7270 C   0  0  0  0  0  0  0  0  0  0  0  0
   30.4990   18.1240   18.4110 O   0  0  0  0  0  0  0  0  0  0  0  0
  2  1  1  0
  3  2  1  0
  4  3  1  0
  5  4  1  0
  6  5  1  0
  6  1  1  0
  7  3  1  0
  8  7  1  0
  9  8  1  0
  9  4  1  0
 10  6  1  0
 11  2  1  0
 12 11  1  0
 13 12  1  0
 14  8  1  0
 15 14  1  0
 16 15  1  0
 17 16  1  0
 18 17  1  0
 19 18  1  0
 19 14  1  0
 20 17  1  0
M  END
$$$$
7B9M
     RDKit          3D

 42 43  0  0  0  0  0  0  0  0999 V2000
   12.8300    8.1590   14.2990 N   0  0  0  0  0  0  0  0  0  0  0  0
   13.7250    9.3130   14.3690 C   0  0  2  0  0  0  0  0  0  0  0  0
   13.0870   10.5540   13.7310 C   0  0  0  0  0  0  0  0  0  0  0  0
   12.2200   10.4360   12.8610 O   0  0  0  0  0  0  0  0  0  0  0  0
   15.0650    8.9920   13.6930 C   0  0  0  0  0  0  0  0  0  0  0  0
   14.9370    8.4630   12.2900 C   0  0  0  0  0  0  0  0  0  0  0  0
   14.8060    9.3280   11.2100 C   0  0  0  0  0  0  0  0  0  0  0  0
   14.9690    7.0980   12.0480 C   0  0  0  0  0  0  0  0  0  0  0  0
   14.6900    8.8370    9.9190 C   0  0  0  0  0  0  0  0  0  0  0  0
   14.8530    6.6030   10.7570 C   0  0  0  0  0  0  0  0  0  0  0  0
   14.7170    7.4720    9.6940 C   0  0  0  0  0  0  0  0  0  0  0  0
   13.5130   11.7390   14.1590 N   0  0  0  0  0  0  0  0  0  0  0  0
   12.9540   12.9720   13.5970 C   0  0  2  0  0  0  0  0  0  0  0  0
   13.5690   13.3050   12.2450 C   0  0  0  0  0  0  0  0  0  0  0  0
   14.6560   12.8490   11.8870 O   0  0  0  0  0  0  0  0  0  0  0  0
   13.3190   14.0300   14.6430 C   0  0  0  0  0  0  0  0  0  0  0  0
   14.6220   13.5260   15.2070 C   0  0  0  0  0  0  0  0  0  0  0  0
   14.4620   12.0130   15.2550 C   0  0  0  0  0  0  0  0  0  0  0  0
   12.8550   14.1410   11.4940 N   0  0  0  0  0  0  0  0  0  0  0  0
   13.2760   14.4890   10.1460 C   0  0  2  0  0  0  0  0  0  0  0  0
   14.3960   15.5280   10.1480 C   0  0  0  0  0  0  0  0  0  0  0  0
   14.3330   16.4960   10.9080 O   0  0  0  0  0  0  0  0  0  0  0  0
   12.0820   15.0020    9.3350 C   0  0  0  0  0  0  0  0  0  0  0  0
   15.4130   15.2910    9.3190 N   0  0  0  0  0  0  0  0  0  0  0  0
   16.5040   16.2350    9.0450 C   0  0  1  0  0  0  0  0  0  0  0  0
   17.7860   15.8560    9.8180 C   0  0  1  0  0  0  0  0  0  0  0  0
   17.5840   16.0800   11.3180 C   0  0  0  0  0  0  0  0  0  0  0  0
   18.0140   14.4780    9.5150 O   0  0  0  0  0  0  0  0  0  0  0  0
   19.4830   13.9150    9.9080 P   0  0  0  0  0  0  0  0  0  0  0  0
   19.6010   12.6160    8.9730 O   0  0  0  0  0  0  0  0  0  0  0  0
   19.5020   13.5190   11.3440 O   0  0  0  0  0  0  0  0  0  0  0  0
   20.6230   14.9650    9.5580 O   0  0  0  0  0  0  0  0  0  0  0  0
   16.7870   16.2550    7.5420 C   0  0  0  0  0  0  0  0  0  0  0  0
   16.5170   15.2690    6.8420 O   0  0  0  0  0  0  0  0  0  0  0  0
   17.3240   17.3650    7.0430 N   0  0  0  0  0  0  0  0  0  0  0  0
   17.6430   17.4850    5.6180 C   0  0  2  0  0  0  0  0  0  0  0  0
   19.0870   17.8860    5.3880 C   0  0  0  0  0  0  0  0  0  0  0  0
   19.8450   18.1870    6.3110 O   0  0  0  0  0  0  0  0  0  0  0  0
   16.7210   18.4950    4.9070 C   0  0  0  0  0  0  0  0  0  0  0  0
   15.2740   18.0410    4.9650 C   0  0  0  0  0  0  0  0  0  0  0  0
   16.9040   19.8870    5.5240 C   0  0  0  0  0  0  0  0  0  0  0  0
   19.5230   17.9250    4.2330 O   0  0  0  0  0  0  0  0  0  0  0  0
  2  1  1  6
  3  2  1  0
  4  3  2  0
  5  2  1  0
  6  5  1  0
  7  6  2  0
  8  6  1  0
  9  7  1  0
 10  8  2  0
 11 10  1  0
 11  9  2  0
 12  3  1  0
 13 12  1  0
 13 14  1  6
 15 14  2  0
 16 13  1  0
 17 16  1  0
 18 17  1  0
 18 12  1  0
 19 14  1  0
 20 19  1  0
 21 20  1  0
 22 21  2  0
 20 23  1  6
 24 21  1  0
 25 24  1  6
 26 25  1  0
 26 27  1  1
 28 26  1  0
 29 28  1  0
 30 29  1  0
 31 29  1  0
 32 29  1  0
 33 25  1  0
 34 33  1  0
 35 33  1  0
 36 35  1  1
 37 36  1  0
 38 37  2  0
 39 36  1  0
 40 39  1  0
 41 39  1  0
 42 37  1  0
M  END
$$$$
5DLR
     RDKit          3D

 22 24  0  0  0  0  0  0  0  0999 V2000
    3.7670   14.1420  -22.2180 C   0  0  0  0  0  0  0  0  0  0  0  0
    5.1010   14.4810  -22.0530 C   0  0  0  0  0  0  0  0  0  0  0  0
    6.0690   13.4860  -22.0180 C   0  0  0  0  0  0  0  0  0  0  0  0
    7.3960   13.8190  -21.8560 O   0  0  0  0  0  0  0  0  0  0  0  0
    5.6970   12.1570  -22.1490 C   0  0  0  0  0  0  0  0  0  0  0  0
    4.3600   11.8210  -22.3170 C   0  0  0  0  0  0  0  0  0  0  0  0
    3.3890   12.8130  -22.3480 C   0  0  0  0  0  0  0  0  0  0  0  0
    1.9440   12.4630  -22.5270 C   0  0  1  0  0  0  0  0  0  0  0  0
    1.2820   12.8760  -23.8040 C   0  0  0  0  0  0  0  0  0  0  0  0
    2.0320   13.0020  -24.9680 C   0  0  0  0  0  0  0  0  0  0  0  0
    1.4160   13.3880  -26.1510 C   0  0  0  0  0  0  0  0  0  0  0  0
    0.0530   13.6440  -26.1730 C   0  0  0  0  0  0  0  0  0  0  0  0
   -0.5530   14.0240  -27.3490 O   0  0  0  0  0  0  0  0  0  0  0  0
   -0.7000   13.5140  -25.0110 C   0  0  0  0  0  0  0  0  0  0  0  0
   -0.0840   13.1340  -23.8260 C   0  0  0  0  0  0  0  0  0  0  0  0
    1.3180   11.4830  -21.7870 C   0  0  0  0  0  0  0  0  0  0  0  0
    1.6600   11.0400  -20.3970 C   0  0  0  0  0  0  0  0  0  0  0  0
    2.4830   11.7790  -19.5580 C   0  0  0  0  0  0  0  0  0  0  0  0
    2.7730   11.3260  -18.2790 C   0  0  0  0  0  0  0  0  0  0  0  0
    2.2350   10.1320  -17.8220 C   0  0  0  0  0  0  0  0  0  0  0  0
    1.4060    9.3920  -18.6520 C   0  0  0  0  0  0  0  0  0  0  0  0
    1.1220    9.8440  -19.9330 C   0  0  0  0  0  0  0  0  0  0  0  0
  2  1  1  0
  3  2  1  0
  4  3  1  0
  5  3  1  0
  6  5  1  0
  7  6  1  0
  7  1  1  0
  8  7  1  0
  9  8  1  0
 10  9  1  0
 11 10  1  0
 12 11  1  0
 13 12  1  0
 14 12  1  0
 15 14  1  0
 15  9  1  0
  8 16  1  6
 17 16  1  0
 18 17  1  0
 19 18  1  0
 20 19  1  0
 21 20  1  0
 22 21  1  0
 22 17  1  0
M  END
$$$$
7BAA
     RDKit          3D

 42 43  0  0  0  0  0  0  0  0999 V2000
   12.8060    8.1410   14.5370 N   0  0  0  0  0  0  0  0  0  0  0  0
   13.6750    9.3180   14.5730 C   0  0  2  0  0  0  0  0  0  0  0  0
   12.9790   10.5370   13.9620 C   0  0  0  0  0  0  0  0  0  0  0  0
   12.1080   10.3920   13.0920 O   0  0  0  0  0  0  0  0  0  0  0  0
   15.0100    9.0380   13.8590 C   0  0  0  0  0  0  0  0  0  0  0  0
   14.8740    8.3930   12.4960 C   0  0  0  0  0  0  0  0  0  0  0  0
   14.6460    9.1580   11.3560 C   0  0  0  0  0  0  0  0  0  0  0  0
   15.0230    7.0220   12.3470 C   0  0  0  0  0  0  0  0  0  0  0  0
   14.5340    8.5600   10.1040 C   0  0  0  0  0  0  0  0  0  0  0  0
   14.9110    6.4220   11.0960 C   0  0  0  0  0  0  0  0  0  0  0  0
   14.6700    7.1890    9.9740 C   0  0  0  0  0  0  0  0  0  0  0  0
   13.3540   11.7320   14.4070 N   0  0  0  0  0  0  0  0  0  0  0  0
   12.7730   12.9460   13.8260 C   0  0  2  0  0  0  0  0  0  0  0  0
   13.3750   13.2460   12.4610 C   0  0  0  0  0  0  0  0  0  0  0  0
   14.4320   12.7350   12.0830 O   0  0  0  0  0  0  0  0  0  0  0  0
   13.1410   14.0180   14.8520 C   0  0  0  0  0  0  0  0  0  0  0  0
   14.4780   13.5430   15.3850 C   0  0  0  0  0  0  0  0  0  0  0  0
   14.3530   12.0310   15.4530 C   0  0  0  0  0  0  0  0  0  0  0  0
   12.6710   14.0970   11.7040 N   0  0  0  0  0  0  0  0  0  0  0  0
   13.1000   14.4610   10.3790 C   0  0  2  0  0  0  0  0  0  0  0  0
   14.2500   15.4530   10.3590 C   0  0  0  0  0  0  0  0  0  0  0  0
   14.2120   16.4350   11.0840 O   0  0  0  0  0  0  0  0  0  0  0  0
   11.9150   15.0300    9.6020 C   0  0  0  0  0  0  0  0  0  0  0  0
   15.2350   15.1900    9.5090 N   0  0  0  0  0  0  0  0  0  0  0  0
   16.3010   16.1380    9.2010 C   0  0  1  0  0  0  0  0  0  0  0  0
   17.6320   15.7890    9.9230 C   0  0  1  0  0  0  0  0  0  0  0  0
   17.4770   15.9740   11.4430 C   0  0  0  0  0  0  0  0  0  0  0  0
   17.9070   14.4160    9.5810 O   0  0  0  0  0  0  0  0  0  0  0  0
   19.3190   13.7340    9.9710 P   0  0  0  0  0  0  0  0  0  0  0  0
   19.3480   12.4950    9.0880 O   0  0  0  0  0  0  0  0  0  0  0  0
   20.3800   14.7170    9.6540 O   0  0  0  0  0  0  0  0  0  0  0  0
   19.3190   13.3780   11.4470 O   0  0  0  0  0  0  0  0  0  0  0  0
   16.5000   16.1430    7.6910 C   0  0  0  0  0  0  0  0  0  0  0  0
   16.0870   15.1850    7.0120 O   0  0  0  0  0  0  0  0  0  0  0  0
   17.0800   17.1960    7.1600 N   0  0  0  0  0  0  0  0  0  0  0  0
   17.3820   17.2630    5.7190 C   0  0  2  0  0  0  0  0  0  0  0  0
   18.8450   17.4640    5.4580 C   0  0  0  0  0  0  0  0  0  0  0  0
   19.6110   17.8990    6.3340 O   0  0  0  0  0  0  0  0  0  0  0  0
   16.5880   18.3340    4.9750 C   0  0  0  0  0  0  0  0  0  0  0  0
   15.1640   17.9990    5.0020 C   0  0  0  0  0  0  0  0  0  0  0  0
   16.9210   19.7130    5.5160 C   0  0  0  0  0  0  0  0  0  0  0  0
   19.2570   17.2170    4.2890 O   0  0  0  0  0  0  0  0  0  0  0  0
  2  1  1  6
  3  2  1  0
  4  3  2  0
  5  2  1  0
  6  5  1  0
  7  6  2  0
  8  6  1  0
  9  7  1  0
 10  8  2  0
 11  9  2  0
 11 10  1  0
 12  3  1  0
 13 12  1  0
 13 14  1  6
 15 14  2  0
 16 13  1  0
 17 16  1  0
 18 17  1  0
 18 12  1  0
 19 14  1  0
 20 19  1  0
 21 20  1  0
 22 21  2  0
 20 23  1  6
 24 21  1  0
 25 24  1  6
 26 25  1  0
 26 27  1  1
 28 26  1  0
 29 28  1  0
 30 29  1  0
 31 29  1  0
 32 29  1  0
 33 25  1  0
 34 33  1  0
 35 33  1  0
 36 35  1  1
 37 36  1  0
 38 37  2  0
 39 36  1  0
 40 39  1  0
 41 39  1  0
 42 37  1  0
M  END
$$$$
7BA7
     RDKit          3D

 42 43  0  0  0  0  0  0  0  0999 V2000
   14.3030    7.9210   13.9750 N   0  0  0  0  0  0  0  0  0  0  0  0
   14.7040    9.1620   13.3250 C   0  0  2  0  0  0  0  0  0  0  0  0
   13.5430   10.1670   13.2530 C   0  0  0  0  0  0  0  0  0  0  0  0
   12.5680    9.9340   12.5340 O   0  0  0  0  0  0  0  0  0  0  0  0
   15.1690    8.8900   11.8810 C   0  0  0  0  0  0  0  0  0  0  0  0
   16.5550    8.2930   11.7610 C   0  0  0  0  0  0  0  0  0  0  0  0
   16.7200    6.9320   11.5400 C   0  0  0  0  0  0  0  0  0  0  0  0
   17.6860    9.0950   11.8270 C   0  0  0  0  0  0  0  0  0  0  0  0
   17.9890    6.3740   11.4120 C   0  0  0  0  0  0  0  0  0  0  0  0
   18.9580    8.5430   11.7000 C   0  0  0  0  0  0  0  0  0  0  0  0
   19.1090    7.1820   11.4920 C   0  0  0  0  0  0  0  0  0  0  0  0
   13.6350   11.2850   13.9730 N   0  0  0  0  0  0  0  0  0  0  0  0
   12.8950   12.4730   13.5400 C   0  0  2  0  0  0  0  0  0  0  0  0
   13.4470   12.9090   12.1940 C   0  0  0  0  0  0  0  0  0  0  0  0
   14.5380   12.5100   11.7880 O   0  0  0  0  0  0  0  0  0  0  0  0
   13.2040   13.5120   14.6230 C   0  0  0  0  0  0  0  0  0  0  0  0
   14.4880   13.0610   15.2300 C   0  0  0  0  0  0  0  0  0  0  0  0
   14.4810   11.5540   15.1500 C   0  0  0  0  0  0  0  0  0  0  0  0
   12.6800   13.7380   11.4950 N   0  0  0  0  0  0  0  0  0  0  0  0
   13.0620   14.1740   10.1590 C   0  0  2  0  0  0  0  0  0  0  0  0
   14.2000   15.1850   10.1890 C   0  0  0  0  0  0  0  0  0  0  0  0
   14.1650   16.1340   10.9620 O   0  0  0  0  0  0  0  0  0  0  0  0
   11.8570   14.7730    9.4240 C   0  0  0  0  0  0  0  0  0  0  0  0
   15.1980   14.9620    9.3370 N   0  0  0  0  0  0  0  0  0  0  0  0
   16.2700   15.9170    9.0540 C   0  0  1  0  0  0  0  0  0  0  0  0
   17.5720   15.5490    9.7890 C   0  0  1  0  0  0  0  0  0  0  0  0
   17.4270   15.7840   11.2910 C   0  0  0  0  0  0  0  0  0  0  0  0
   17.7960   14.1730    9.4830 O   0  0  0  0  0  0  0  0  0  0  0  0
   19.2630   13.6070    9.8710 P   0  0  0  0  0  0  0  0  0  0  0  0
   19.3420   12.2970    8.9490 O   0  0  0  0  0  0  0  0  0  0  0  0
   19.2850   13.2510   11.3080 O   0  0  0  0  0  0  0  0  0  0  0  0
   20.4190   14.6480    9.5140 O   0  0  0  0  0  0  0  0  0  0  0  0
   16.4920   15.9460    7.5440 C   0  0  0  0  0  0  0  0  0  0  0  0
   16.1500   14.9890    6.8430 O   0  0  0  0  0  0  0  0  0  0  0  0
   17.0320   17.0490    7.0280 N   0  0  0  0  0  0  0  0  0  0  0  0
   17.3290   17.1360    5.5920 C   0  0  2  0  0  0  0  0  0  0  0  0
   18.7800   17.4430    5.3040 C   0  0  0  0  0  0  0  0  0  0  0  0
   19.5260   17.8700    6.1780 O   0  0  0  0  0  0  0  0  0  0  0  0
   16.4520   18.1590    4.8660 C   0  0  0  0  0  0  0  0  0  0  0  0
   15.0060   17.7810    4.9620 C   0  0  0  0  0  0  0  0  0  0  0  0
   16.6980   19.5520    5.4110 C   0  0  0  0  0  0  0  0  0  0  0  0
   19.2170   17.2930    4.1620 O   0  0  0  0  0  0  0  0  0  0  0  0
  2  1  1  6
  3  2  1  0
  4  3  2  0
  5  2  1  0
  6  5  1  0
  7  6  2  0
  8  6  1  0
  9  7  1  0
 10  8  2  0
 11 10  1  0
 11  9  2  0
 12  3  1  0
 13 12  1  0
 13 14  1  6
 15 14  2  0
 16 13  1  0
 17 16  1  0
 18 17  1  0
 18 12  1  0
 19 14  1  0
 20 19  1  0
 21 20  1  0
 22 21  2  0
 20 23  1  1
 24 21  1  0
 25 24  1  6
 26 25  1  0
 26 27  1  1
 28 26  1  0
 29 28  1  0
 30 29  1  0
 31 29  1  0
 32 29  1  0
 33 25  1  0
 34 33  1  0
 35 33  1  0
 36 35  1  1
 37 36  1  0
 38 37  2  0
 39 36  1  0
 40 39  1  0
 41 39  1  0
 42 37  1  0
M  END
$$$$
5DUG
     RDKit          3D

 70 70  0  0  0  0  0  0  0  0999 V2000
   -6.8080  -41.0320  -34.4730 N   0  0  0  0  0  0  0  0  0  0  0  0
   -6.6360  -39.6230  -34.1230 C   0  0  2  0  0  0  0  0  0  0  0  0
   -5.6960  -38.9010  -35.0820 C   0  0  0  0  0  0  0  0  0  0  0  0
   -4.5220  -39.2520  -35.2010 O   0  0  0  0  0  0  0  0  0  0  0  0
   -6.1320  -39.4790  -32.6840 C   0  0  0  0  0  0  0  0  0  0  0  0
   -7.2390  -39.3510  -31.6500 C   0  0  0  0  0  0  0  0  0  0  0  0
   -6.6740  -39.2080  -30.2430 C   0  0  0  0  0  0  0  0  0  0  0  0
   -7.7780  -38.9310  -29.2330 C   0  0  0  0  0  0  0  0  0  0  0  0
   -7.2750  -38.9450  -27.8300 N   0  0  0  0  0  0  0  0  0  0  0  0
   -6.2220  -37.8890  -35.7640 N   0  0  0  0  0  0  0  0  0  0  0  0
   -5.4220  -37.0910  -36.6850 C   0  0  2  0  0  0  0  0  0  0  0  0
   -4.2320  -36.4770  -35.9600 C   0  0  0  0  0  0  0  0  0  0  0  0
   -3.1180  -36.4500  -36.4840 O   0  0  0  0  0  0  0  0  0  0  0  0
   -6.2540  -35.9690  -37.3190 C   0  0  2  0  0  0  0  0  0  0  0  0
   -7.5370  -36.5390  -37.9290 C   0  0  0  0  0  0  0  0  0  0  0  0
   -5.4350  -35.2300  -38.3660 C   0  0  0  0  0  0  0  0  0  0  0  0
   -8.4390  -35.4930  -38.5640 C   0  0  0  0  0  0  0  0  0  0  0  0
   -4.4780  -35.9840  -34.7510 N   0  0  0  0  0  0  0  0  0  0  0  0
   -3.4150  -35.4460  -33.9140 C   0  0  2  0  0  0  0  0  0  0  0  0
   -2.3380  -36.5020  -33.7080 C   0  0  0  0  0  0  0  0  0  0  0  0
   -1.1470  -36.1970  -33.6860 O   0  0  0  0  0  0  0  0  0  0  0  0
   -3.9720  -34.9940  -32.5620 C   0  0  0  0  0  0  0  0  0  0  0  0
   -2.9220  -34.4840  -31.5730 C   0  0  0  0  0  0  0  0  0  0  0  0
   -2.0970  -33.3800  -32.2120 C   0  0  0  0  0  0  0  0  0  0  0  0
   -3.5680  -34.0020  -30.2830 C   0  0  0  0  0  0  0  0  0  0  0  0
   -2.7710  -37.7470  -33.5600 N   0  0  0  0  0  0  0  0  0  0  0  0
   -1.8590  -38.8680  -33.3750 C   0  0  2  0  0  0  0  0  0  0  0  0
   -0.9100  -38.9840  -34.5580 C   0  0  0  0  0  0  0  0  0  0  0  0
    0.3070  -39.0630  -34.3890 O   0  0  0  0  0  0  0  0  0  0  0  0
   -2.6540  -40.1640  -33.2380 C   0  0  0  0  0  0  0  0  0  0  0  0
   -2.3550  -40.9330  -31.9910 C   0  0  0  0  0  0  0  0  0  0  0  0
   -1.3570  -41.8800  -31.9230 N   0  0  0  0  0  0  0  0  0  0  0  0
   -2.9310  -40.9030  -30.7660 C   0  0  0  0  0  0  0  0  0  0  0  0
   -1.3300  -42.4000  -30.7090 C   0  0  0  0  0  0  0  0  0  0  0  0
   -2.2720  -41.8210  -29.9860 N   0  0  0  0  0  0  0  0  0  0  0  0
   -1.4810  -38.9950  -35.7570 N   0  0  0  0  0  0  0  0  0  0  0  0
   -0.7100  -39.1640  -36.9800 C   0  0  2  0  0  0  0  0  0  0  0  0
    0.2290  -37.9870  -37.2110 C   0  0  0  0  0  0  0  0  0  0  0  0
    1.4190  -38.1720  -37.4610 O   0  0  0  0  0  0  0  0  0  0  0  0
   -1.6450  -39.3330  -38.1790 C   0  0  0  0  0  0  0  0  0  0  0  0
   -0.3130  -36.7770  -37.1270 N   0  0  0  0  0  0  0  0  0  0  0  0
    0.4810  -35.5740  -37.3400 C   0  0  2  0  0  0  0  0  0  0  0  0
    1.6660  -35.5240  -36.3800 C   0  0  0  0  0  0  0  0  0  0  0  0
    2.7430  -35.0510  -36.7380 O   0  0  0  0  0  0  0  0  0  0  0  0
   -0.3890  -34.3210  -37.1960 C   0  0  0  0  0  0  0  0  0  0  0  0
   -1.6130  -34.2750  -38.1180 C   0  0  0  0  0  0  0  0  0  0  0  0
   -2.4280  -33.0100  -37.8980 C   0  0  0  0  0  0  0  0  0  0  0  0
   -1.1980  -34.3990  -39.5790 C   0  0  0  0  0  0  0  0  0  0  0  0
    1.4570  -36.0200  -35.1630 N   0  0  0  0  0  0  0  0  0  0  0  0
    2.5160  -36.0970  -34.1600 C   0  0  2  0  0  0  0  0  0  0  0  0
    3.5830  -37.1060  -34.5730 C   0  0  0  0  0  0  0  0  0  0  0  0
    4.7690  -36.7850  -34.6230 O   0  0  0  0  0  0  0  0  0  0  0  0
    1.9390  -36.5040  -32.8020 C   0  0  0  0  0  0  0  0  0  0  0  0
    1.9350  -35.5150  -31.6320 C   0  0  0  0  0  0  0  0  0  0  0  0
    2.7770  -34.2770  -31.9100 C   0  0  0  0  0  0  0  0  0  0  0  0
    0.5120  -35.1270  -31.2900 C   0  0  0  0  0  0  0  0  0  0  0  0
    3.1530  -38.3320  -34.8580 N   0  0  0  0  0  0  0  0  0  0  0  0
    4.0650  -39.4020  -35.2570 C   0  0  2  0  0  0  0  0  0  0  0  0
    4.9540  -38.9920  -36.4380 C   0  0  0  0  0  0  0  0  0  0  0  0
    6.0860  -39.4610  -36.5600 O   0  0  0  0  0  0  0  0  0  0  0  0
    3.2800  -40.6720  -35.6110 C   0  0  0  0  0  0  0  0  0  0  0  0
    2.8590  -41.5410  -34.4420 C   0  0  0  0  0  0  0  0  0  0  0  0
    1.8600  -42.6090  -34.8530 C   0  0  0  0  0  0  0  0  0  0  0  0
    1.1620  -42.4730  -35.8600 O   0  0  0  0  0  0  0  0  0  0  0  0
    1.7860  -43.6780  -34.0730 N   0  0  0  0  0  0  0  0  0  0  0  0
    4.4240  -38.1190  -37.2950 N   0  0  0  0  0  0  0  0  0  0  0  0
    5.1030  -37.6420  -38.5070 C   0  0  2  0  0  0  0  0  0  0  0  0
    4.7350  -38.4680  -39.7410 C   0  0  0  0  0  0  0  0  0  0  0  0
    3.6130  -38.3850  -40.2460 O   0  0  0  0  0  0  0  0  0  0  0  0
    6.6250  -37.5950  -38.3340 C   0  0  0  0  0  0  0  0  0  0  0  0
  2  1  1  6
  3  2  1  0
  4  3  2  0
  5  2  1  0
  6  5  1  0
  7  6  1  0
  8  7  1  0
  9  8  1  0
 10  3  1  0
 11 10  1  1
 12 11  1  0
 13 12  2  0
 14 11  1  0
 15 14  1  0
 14 16  1  6
 17 15  1  0
 18 12  1  0
 19 18  1  0
 20 19  1  0
 21 20  2  0
 19 22  1  1
 23 22  1  0
 24 23  1  0
 25 23  1  0
 26 20  1  0
 27 26  1  0
 28 27  1  0
 29 28  2  0
 27 30  1  6
 31 30  1  0
 32 31  1  0
 33 31  2  0
 34 32  2  0
 35 34  1  0
 35 33  1  0
 36 28  1  0
 37 36  1  0
 38 37  1  0
 39 38  2  0
 37 40  1  6
 41 38  1  0
 42 41  1  0
 43 42  1  0
 44 43  2  0
 42 45  1  1
 46 45  1  0
 47 46  1  0
 48 46  1  0
 49 43  1  0
 50 49  1  0
 51 50  1  0
 52 51  2  0
 50 53  1  1
 54 53  1  0
 55 54  1  0
 56 54  1  0
 57 51  1  0
 58 57  1  0
 59 58  1  0
 60 59  2  0
 58 61  1  6
 62 61  1  0
 63 62  1  0
 64 63  2  0
 65 63  1  0
 66 59  1  0
 67 66  1  0
 68 67  1  0
 69 68  2  0
 67 70  1  1
M  END
$$$$
8AT9
     RDKit          3D

 42 43  0  0  0  0  0  0  0  0999 V2000
   28.0210   -7.9190   14.2400 N   0  0  0  0  0  0  0  0  0  0  0  0
   26.9910   -9.0190   14.1780 C   0  0  2  0  0  0  0  0  0  0  0  0
   27.5670  -10.2780   13.5280 C   0  0  0  0  0  0  0  0  0  0  0  0
   28.2780  -10.2130   12.5210 O   0  0  0  0  0  0  0  0  0  0  0  0
   25.7460   -8.5410   13.4160 C   0  0  0  0  0  0  0  0  0  0  0  0
   26.0390   -8.0410   12.0280 C   0  0  0  0  0  0  0  0  0  0  0  0
   26.1500   -8.9410   10.9600 C   0  0  0  0  0  0  0  0  0  0  0  0
   26.2190   -6.6690   11.7730 C   0  0  0  0  0  0  0  0  0  0  0  0
   26.4430   -8.4850    9.6750 C   0  0  0  0  0  0  0  0  0  0  0  0
   26.5140   -6.2230   10.4970 C   0  0  0  0  0  0  0  0  0  0  0  0
   26.6170   -7.1300    9.4490 C   0  0  0  0  0  0  0  0  0  0  0  0
   27.2870  -11.4740   14.0840 N   0  0  0  0  0  0  0  0  0  0  0  0
   27.8950  -12.6960   13.5770 C   0  0  2  0  0  0  0  0  0  0  0  0
   27.3320  -13.0790   12.2020 C   0  0  0  0  0  0  0  0  0  0  0  0
   26.2670  -12.6380   11.8430 O   0  0  0  0  0  0  0  0  0  0  0  0
   27.5800  -13.7160   14.6620 C   0  0  0  0  0  0  0  0  0  0  0  0
   26.2760  -13.2660   15.2180 C   0  0  0  0  0  0  0  0  0  0  0  0
   26.3420  -11.7510   15.1760 C   0  0  0  0  0  0  0  0  0  0  0  0
   28.0880  -13.8860   11.4650 N   0  0  0  0  0  0  0  0  0  0  0  0
   27.6640  -14.2940   10.1640 C   0  0  2  0  0  0  0  0  0  0  0  0
   26.5640  -15.3190   10.2130 C   0  0  0  0  0  0  0  0  0  0  0  0
   26.6580  -16.3000   10.9440 O   0  0  0  0  0  0  0  0  0  0  0  0
   28.8240  -14.8930    9.4020 C   0  0  0  0  0  0  0  0  0  0  0  0
   25.5620  -15.1210    9.3620 N   0  0  0  0  0  0  0  0  0  0  0  0
   24.4830  -16.0730    9.0490 C   0  0  1  0  0  0  0  0  0  0  0  0
   23.2120  -15.7590    9.8400 C   0  0  1  0  0  0  0  0  0  0  0  0
   23.4010  -15.9230   11.3330 C   0  0  0  0  0  0  0  0  0  0  0  0
   22.8720  -14.3720    9.5040 O   0  0  0  0  0  0  0  0  0  0  0  0
   21.4350  -13.7650    9.8550 P   0  0  0  0  0  0  0  0  0  0  0  0
   21.3690  -12.5530    8.9400 O   0  0  0  0  0  0  0  0  0  0  0  0
   21.4760  -13.3920   11.3240 O   0  0  0  0  0  0  0  0  0  0  0  0
   20.3710  -14.8320    9.5660 O   0  0  0  0  0  0  0  0  0  0  0  0
   24.2390  -16.0770    7.5440 C   0  0  1  0  0  0  0  0  0  0  0  0
   24.6120  -15.1060    6.8560 O   0  0  0  0  0  0  0  0  0  0  0  0
   23.7060  -17.1990    7.0550 N   0  0  0  0  0  0  0  0  0  0  0  0
   23.3420  -17.2970    5.6610 C   0  0  2  0  0  0  0  0  0  0  0  0
   21.9170  -17.6090    5.3560 C   0  0  0  0  0  0  0  0  0  0  0  0
   21.1520  -18.0270    6.2490 O   0  0  0  0  0  0  0  0  0  0  0  0
   24.2140  -18.3360    4.9280 C   0  0  0  0  0  0  0  0  0  0  0  0
   25.6610  -17.9050    4.9480 C   0  0  0  0  0  0  0  0  0  0  0  0
   24.0400  -19.7220    5.5170 C   0  0  0  0  0  0  0  0  0  0  0  0
   21.5340  -17.4580    4.1430 O   0  0  0  0  0  0  0  0  0  0  0  0
  2  1  1  6
  3  2  1  0
  4  3  2  0
  5  2  1  0
  6  5  1  0
  7  6  2  0
  8  6  1  0
  9  7  1  0
 10  8  2  0
 11 10  1  0
 11  9  2  0
 12  3  1  0
 13 12  1  0
 13 14  1  6
 15 14  2  0
 16 13  1  0
 17 16  1  0
 18 17  1  0
 18 12  1  0
 19 14  1  0
 20 19  1  0
 21 20  1  0
 22 21  2  0
 20 23  1  1
 24 21  1  0
 25 24  1  6
 26 25  1  0
 26 27  1  1
 28 26  1  0
 29 28  1  0
 30 29  1  0
 31 29  1  0
 32 29  1  0
 33 25  1  0
 33 34  1  6
 35 33  1  0
 36 35  1  1
 37 36  1  0
 38 37  2  0
 39 36  1  0
 40 39  1  0
 41 39  1  0
 42 37  1  0
M  END
$$$$
7RS9
     RDKit          3D

 36 40  0  0  0  0  0  0  0  0999 V2000
    0.9750  -10.9700  -21.5840 C   0  0  0  0  0  0  0  0  0  0  0  0
   -6.1580   -8.2130  -24.2610 C   0  0  2  0  0  0  0  0  0  0  0  0
   -6.9280   -9.7440  -21.0890 C   0  0  0  0  0  0  0  0  0  0  0  0
   -9.0900   -9.6050  -20.1790 C   0  0  0  0  0  0  0  0  0  0  0  0
   -0.9160   -9.5110  -21.6200 C   0  0  1  0  0  0  0  0  0  0  0  0
   -1.4540  -10.1050  -19.2380 C   0  0  0  0  0  0  0  0  0  0  0  0
   -0.3030   -9.9310  -17.1920 C   0  0  0  0  0  0  0  0  0  0  0  0
   -2.0330  -11.4480  -17.3810 C   0  0  0  0  0  0  0  0  0  0  0  0
    0.3070   -9.8920  -22.0580 C   0  0  0  0  0  0  0  0  0  0  0  0
   -5.7160   -7.9090  -21.6870 N   0  0  0  0  0  0  0  0  0  0  0  0
   -1.8570   -8.7090  -22.5190 C   0  0  2  0  0  0  0  0  0  0  0  0
   -4.7420   -6.9340  -20.6980 S   0  0  1  0  0  0  0  0  0  0  0  0
   -3.0730   -9.2610  -20.9150 C   0  0  1  0  0  0  0  0  0  0  0  0
   -2.1060   -7.3330  -21.8850 C   0  0  0  0  0  0  0  0  0  0  0  0
   -3.0490   -7.7290  -20.7260 C   0  0  1  0  0  0  0  0  0  0  0  0
    2.1330   -9.5310  -23.5100 C   0  0  0  0  0  0  0  0  0  0  0  0
    2.7990  -10.6000  -23.0350 C   0  0  0  0  0  0  0  0  0  0  0  0
    2.1940  -11.3180  -22.0630 C   0  0  0  0  0  0  0  0  0  0  0  0
    0.9310   -9.1860  -23.0460 C   0  0  0  0  0  0  0  0  0  0  0  0
   -3.0480   -9.4170  -22.3070 O   0  0  0  0  0  0  0  0  0  0  0  0
   -1.6820   -9.7450  -20.5150 C   0  0  1  0  0  0  0  0  0  0  0  0
   -5.2240   -8.1960  -23.1000 C   0  0  0  0  0  0  0  0  0  0  0  0
    4.0310  -10.9120  -23.5340 O   0  0  0  0  0  0  0  0  0  0  0  0
   -4.2380   -5.6650  -21.2060 O   0  0  0  0  0  0  0  0  0  0  0  0
   -6.8030   -8.4010  -21.2120 C   0  0  0  0  0  0  0  0  0  0  0  0
   -8.0330  -10.3290  -20.5940 C   0  0  0  0  0  0  0  0  0  0  0  0
   -8.9770   -8.2690  -20.2770 C   0  0  0  0  0  0  0  0  0  0  0  0
   -7.8720   -7.6920  -20.7710 C   0  0  0  0  0  0  0  0  0  0  0  0
   -0.4910   -9.5470  -18.4670 C   0  0  0  0  0  0  0  0  0  0  0  0
   -1.0720  -10.8840  -16.6290 C   0  0  0  0  0  0  0  0  0  0  0  0
   -2.2200  -11.0610  -18.6530 C   0  0  0  0  0  0  0  0  0  0  0  0
   -0.8730  -11.2710  -15.3520 O   0  0  0  0  0  0  0  0  0  0  0  0
   -5.6970   -7.6080  -25.3140 F   0  0  0  0  0  0  0  0  0  0  0  0
   -7.3170   -7.6910  -23.9830 F   0  0  0  0  0  0  0  0  0  0  0  0
   -6.3300   -9.4370  -24.6520 F   0  0  0  0  0  0  0  0  0  0  0  0
   -4.9150   -7.1620  -19.2630 O   0  0  0  0  0  0  0  0  0  0  0  0
  9  1  1  0
  5  9  1  6
 11  5  1  0
 12 10  1  0
 11 14  1  1
 15 14  1  6
 15 13  1  0
 15 12  1  0
 17 16  1  0
 18  1  1  0
 18 17  1  0
 19 16  1  0
 19  9  1  0
 20 11  1  0
 13 20  1  6
 21 13  1  0
 21  6  1  1
 21  5  1  0
 22  2  1  0
 22 10  1  0
 23 17  1  0
 12 24  1  1
 25 10  1  0
 25  3  1  0
 26  4  1  0
 26  3  1  0
 27  4  1  0
 28 27  1  0
 28 25  1  0
 29  7  1  0
 29  6  1  0
 30  8  1  0
 30  7  1  0
 31  8  1  0
 31  6  1  0
 32 30  1  0
  2 33  1  6
 34  2  1  0
 35  2  1  0
 36 12  1  0
M  END
$$$$
7WNV
     RDKit          3D

 71 70  0  0  0  0  0  0  0  0999 V2000
  -22.2060    7.0250    0.9600 N   0  0  0  0  0  0  0  0  0  0  0  0
  -21.0000    7.3510    0.1960 C   0  0  2  0  0  0  0  0  0  0  0  0
  -21.1250    6.9410   -1.2350 C   0  0  0  0  0  0  0  0  0  0  0  0
  -20.8550    7.7180   -2.1130 O   0  0  0  0  0  0  0  0  0  0  0  0
  -19.7600    6.7260    0.7900 C   0  0  0  0  0  0  0  0  0  0  0  0
  -18.4380    7.1340    0.1530 C   0  0  0  0  0  0  0  0  0  0  0  0
  -18.1510    8.6000    0.3370 C   0  0  0  0  0  0  0  0  0  0  0  0
  -17.2820    6.3160    0.6490 C   0  0  0  0  0  0  0  0  0  0  0  0
  -21.5350    5.7130   -1.4690 N   0  0  0  0  0  0  0  0  0  0  0  0
  -21.7220    5.2370   -2.8260 C   0  0  2  0  0  0  0  0  0  0  0  0
  -22.7050    6.1270   -3.5420 C   0  0  0  0  0  0  0  0  0  0  0  0
  -22.5360    6.4470   -4.6840 O   0  0  0  0  0  0  0  0  0  0  0  0
  -22.2270    3.7940   -2.8930 C   0  0  0  0  0  0  0  0  0  0  0  0
  -22.5060    3.2160   -1.6340 O   0  0  0  0  0  0  0  0  0  0  0  0
  -23.7480    6.5250   -2.8540 N   0  0  0  0  0  0  0  0  0  0  0  0
  -24.7260    7.3930   -3.5130 C   0  0  2  0  0  0  0  0  0  0  0  0
  -24.1670    8.7960   -3.7520 C   0  0  0  0  0  0  0  0  0  0  0  0
  -24.4950    9.4330   -4.7640 O   0  0  0  0  0  0  0  0  0  0  0  0
  -26.0260    7.4320   -2.7000 C   0  0  0  0  0  0  0  0  0  0  0  0
  -26.6450    6.0380   -2.5080 C   0  0  0  0  0  0  0  0  0  0  0  0
  -26.5070    5.1770   -3.4080 O   0  0  0  0  0  0  0  0  0  0  0  0
  -27.2550    5.8000   -1.4430 O   0  0  0  0  0  0  0  0  0  0  0  0
  -23.3570    9.3110   -2.8170 N   0  0  0  0  0  0  0  0  0  0  0  0
  -22.7120   10.6100   -3.0230 C   0  0  2  0  0  0  0  0  0  0  0  0
  -21.7210   10.5610   -4.1840 C   0  0  0  0  0  0  0  0  0  0  0  0
  -21.6470   11.5030   -4.9840 O   0  0  0  0  0  0  0  0  0  0  0  0
  -22.0030   11.0730   -1.7480 C   0  0  0  0  0  0  0  0  0  0  0  0
  -21.2450   12.3970   -1.8860 C   0  0  0  0  0  0  0  0  0  0  0  0
  -22.1670   13.6140   -1.6350 C   0  0  0  0  0  0  0  0  0  0  0  0
  -20.0600   12.4310   -0.9520 C   0  0  0  0  0  0  0  0  0  0  0  0
  -20.9400    9.4790   -4.2800 N   0  0  0  0  0  0  0  0  0  0  0  0
  -20.0050    9.3410   -5.3870 C   0  0  2  0  0  0  0  0  0  0  0  0
  -20.7380    9.3420   -6.7280 C   0  0  0  0  0  0  0  0  0  0  0  0
  -20.3250   10.0300   -7.6730 O   0  0  0  0  0  0  0  0  0  0  0  0
  -19.1690    8.0700   -5.2170 C   0  0  0  0  0  0  0  0  0  0  0  0
  -18.1030    8.1010   -4.1100 C   0  0  0  0  0  0  0  0  0  0  0  0
  -17.4860    6.7320   -3.8700 C   0  0  0  0  0  0  0  0  0  0  0  0
  -17.0290    9.1280   -4.4430 C   0  0  0  0  0  0  0  0  0  0  0  0
  -21.8400    8.5900   -6.8290 N   0  0  0  0  0  0  0  0  0  0  0  0
  -22.5730    8.5320   -8.0920 C   0  0  2  0  0  0  0  0  0  0  0  0
  -23.1710    9.8880   -8.4440 C   0  0  0  0  0  0  0  0  0  0  0  0
  -23.1260   10.3100   -9.6060 O   0  0  0  0  0  0  0  0  0  0  0  0
  -23.6620    7.4540   -8.0400 C   0  0  0  0  0  0  0  0  0  0  0  0
  -23.2910    5.9710   -8.2190 C   0  0  0  0  0  0  0  0  0  0  0  0
  -22.3260    5.8020   -9.3820 C   0  0  0  0  0  0  0  0  0  0  0  0
  -22.7310    5.3030   -6.9640 C   0  0  0  0  0  0  0  0  0  0  0  0
  -23.7120   10.5960   -7.4480 N   0  0  0  0  0  0  0  0  0  0  0  0
  -24.2930   11.9110   -7.7040 C   0  0  2  0  0  0  0  0  0  0  0  0
  -23.2560   12.8820   -8.2640 C   0  0  0  0  0  0  0  0  0  0  0  0
  -23.5270   13.6080   -9.2290 O   0  0  0  0  0  0  0  0  0  0  0  0
  -24.9070   12.4780   -6.4190 C   0  0  0  0  0  0  0  0  0  0  0  0
  -24.9710   14.0080   -6.3910 C   0  0  0  0  0  0  0  0  0  0  0  0
  -26.1590   14.5410   -5.6010 C   0  0  0  0  0  0  0  0  0  0  0  0
  -26.2640   14.2170   -4.3890 O   0  0  0  0  0  0  0  0  0  0  0  0
  -26.9820   15.2790   -6.1950 O   0  0  0  0  0  0  0  0  0  0  0  0
  -22.0630   12.9250   -7.6620 N   0  0  0  0  0  0  0  0  0  0  0  0
  -21.0880   13.9310   -8.0740 C   0  0  2  0  0  0  0  0  0  0  0  0
  -20.3300   13.5290   -9.3230 C   0  0  0  0  0  0  0  0  0  0  0  0
  -20.0310   14.3790  -10.1680 O   0  0  0  0  0  0  0  0  0  0  0  0
  -20.1260   14.2020   -6.9360 C   0  0  0  0  0  0  0  0  0  0  0  0
  -20.8780   14.4320   -5.6750 C   0  0  0  0  0  0  0  0  0  0  0  0
  -19.8660   15.2140   -4.4590 S   0  0  0  0  0  0  0  0  0  0  0  0
  -19.1520   16.6290   -5.3730 C   0  0  0  0  0  0  0  0  0  0  0  0
  -20.0010   12.2560   -9.4600 N   0  0  0  0  0  0  0  0  0  0  0  0
  -19.2280   11.8420  -10.6090 C   0  0  2  0  0  0  0  0  0  0  0  0
  -20.1130   11.7820  -11.8540 C   0  0  0  0  0  0  0  0  0  0  0  0
  -19.6060   11.7520  -12.9780 O   0  0  0  0  0  0  0  0  0  0  0  0
  -18.5580   10.5070  -10.3200 C   0  0  0  0  0  0  0  0  0  0  0  0
  -17.5240   10.6060   -9.1860 C   0  0  0  0  0  0  0  0  0  0  0  0
  -17.2290    9.2590   -8.5970 C   0  0  0  0  0  0  0  0  0  0  0  0
  -16.2320   11.2680   -9.6740 C   0  0  0  0  0  0  0  0  0  0  0  0
  2  1  1  1
  3  2  1  0
  4  3  2  0
  5  2  1  0
  6  5  1  0
  7  6  1  0
  8  6  1  0
  9  3  1  0
 10  9  1  0
 11 10  1  0
 12 11  2  0
 10 13  1  1
 14 13  1  0
 15 11  1  0
 16 15  1  0
 17 16  1  0
 18 17  2  0
 16 19  1  1
 20 19  1  0
 21 20  2  0
 22 20  1  0
 23 17  1  0
 24 23  1  0
 25 24  1  0
 26 25  2  0
 24 27  1  1
 28 27  1  0
 29 28  1  0
 30 28  1  0
 31 25  1  0
 32 31  1  0
 33 32  1  0
 34 33  2  0
 32 35  1  1
 36 35  1  0
 37 36  1  0
 38 36  1  0
 39 33  1  0
 40 39  1  0
 41 40  1  0
 42 41  2  0
 40 43  1  1
 44 43  1  0
 45 44  1  0
 46 44  1  0
 47 41  1  0
 48 47  1  0
 49 48  1  0
 50 49  2  0
 48 51  1  1
 52 51  1  0
 53 52  1  0
 54 53  2  0
 55 53  1  0
 56 49  1  0
 57 56  1  0
 58 57  1  0
 59 58  2  0
 57 60  1  1
 61 60  1  0
 62 61  1  0
 63 62  1  0
 64 58  1  0
 65 64  1  0
 66 65  1  0
 67 66  2  0
 65 68  1  1
 69 68  1  0
 70 69  1  0
 71 69  1  0
M  END
$$$$
4IVY
     RDKit          3D

 79 79  0  0  0  0  0  0  0  0999 V2000
    7.2170  -16.8410   33.8090 N   0  0  0  0  0  0  0  0  0  0  0  0
    7.8960  -15.6690   34.3490 C   0  0  2  0  0  0  0  0  0  0  0  0
    6.9110  -14.7310   35.0440 C   0  0  0  0  0  0  0  0  0  0  0  0
    5.6970  -14.9180   34.9580 O   0  0  0  0  0  0  0  0  0  0  0  0
    8.6480  -14.9300   33.2400 C   0  0  0  0  0  0  0  0  0  0  0  0
    7.8180  -14.6970   31.9860 C   0  0  0  0  0  0  0  0  0  0  0  0
    8.6220  -13.9770   30.9120 C   0  0  0  0  0  0  0  0  0  0  0  0
    8.5460  -14.7230   29.5910 C   0  0  0  0  0  0  0  0  0  0  0  0
    9.2750  -14.0160   28.5040 N   0  0  0  0  0  0  0  0  0  0  0  0
    7.4430  -13.7260   35.7330 N   0  0  0  0  0  0  0  0  0  0  0  0
    6.6320  -12.8040   36.5260 C   0  0  2  0  0  0  0  0  0  0  0  0
    5.4280  -12.2510   35.7630 C   0  0  0  0  0  0  0  0  0  0  0  0
    4.2830  -12.4260   36.1830 O   0  0  0  0  0  0  0  0  0  0  0  0
    7.4770  -11.6300   37.0480 C   0  0  2  0  0  0  0  0  0  0  0  0
    8.7690  -12.1480   37.6860 C   0  0  0  0  0  0  0  0  0  0  0  0
    6.6740  -10.7930   38.0330 C   0  0  0  0  0  0  0  0  0  0  0  0
    9.6810  -11.0560   38.1950 C   0  0  0  0  0  0  0  0  0  0  0  0
    5.6930  -11.5790   34.6480 N   0  0  0  0  0  0  0  0  0  0  0  0
    4.6340  -10.9700   33.8520 C   0  0  2  0  0  0  0  0  0  0  0  0
    3.5080  -11.9580   33.5660 C   0  0  0  0  0  0  0  0  0  0  0  0
    2.3310  -11.5970   33.5790 O   0  0  0  0  0  0  0  0  0  0  0  0
    5.2000  -10.4240   32.5390 C   0  0  0  0  0  0  0  0  0  0  0  0
    4.1950   -9.7600   31.5940 C   0  0  0  0  0  0  0  0  0  0  0  0
    3.4210   -8.6660   32.3150 C   0  0  0  0  0  0  0  0  0  0  0  0
    4.8960   -9.2060   30.3620 C   0  0  0  0  0  0  0  0  0  0  0  0
    3.8780  -13.2090   33.3170 N   0  0  0  0  0  0  0  0  0  0  0  0
    2.9100  -14.2330   32.9500 C   0  0  2  0  0  0  0  0  0  0  0  0
    1.9240  -14.5180   34.0790 C   0  0  0  0  0  0  0  0  0  0  0  0
    0.7110  -14.5160   33.8700 O   0  0  0  0  0  0  0  0  0  0  0  0
    3.6280  -15.5200   32.5390 C   0  0  0  0  0  0  0  0  0  0  0  0
    2.7250  -16.5440   31.9250 C   0  0  0  0  0  0  0  0  0  0  0  0
    2.3240  -17.6810   32.5940 N   0  0  0  0  0  0  0  0  0  0  0  0
    2.1450  -16.6010   30.7030 C   0  0  0  0  0  0  0  0  0  0  0  0
    1.5370  -18.3950   31.8090 C   0  0  0  0  0  0  0  0  0  0  0  0
    1.4110  -17.7630   30.6570 N   0  0  0  0  0  0  0  0  0  0  0  0
    2.4480  -14.7580   35.2760 N   0  0  0  0  0  0  0  0  0  0  0  0
    1.6050  -15.1200   36.4110 C   0  0  2  0  0  0  0  0  0  0  0  0
    0.8180  -13.9320   36.9640 C   0  0  0  0  0  0  0  0  0  0  0  0
   -0.2930  -14.1000   37.4650 O   0  0  0  0  0  0  0  0  0  0  0  0
    2.4320  -15.7800   37.5160 C   0  0  0  0  0  0  0  0  0  0  0  0
    3.4600  -14.8710   38.1570 C   0  0  0  0  0  0  0  0  0  0  0  0
    4.2370  -15.6100   39.2330 C   0  0  0  0  0  0  0  0  0  0  0  0
    5.1590  -14.7270   39.9400 N   0  0  0  0  0  0  0  0  0  0  0  0
    4.8350  -14.0250   41.0200 C   0  0  0  0  0  0  0  0  0  0  0  0
    3.6100  -14.1020   41.5210 N   0  0  0  0  0  0  0  0  0  0  0  0
    5.7370  -13.2460   41.6000 N   0  0  0  0  0  0  0  0  0  0  0  0
    1.3940  -12.7370   36.8790 N   0  0  0  0  0  0  0  0  0  0  0  0
    0.6820  -11.5310   37.2910 C   0  0  2  0  0  0  0  0  0  0  0  0
   -0.5470  -11.3350   36.4130 C   0  0  0  0  0  0  0  0  0  0  0  0
   -1.5970  -10.8950   36.8810 O   0  0  0  0  0  0  0  0  0  0  0  0
    1.5890  -10.3030   37.2150 C   0  0  0  0  0  0  0  0  0  0  0  0
    2.7630  -10.2500   38.1950 C   0  0  0  0  0  0  0  0  0  0  0  0
    3.5700   -8.9770   37.9880 C   0  0  0  0  0  0  0  0  0  0  0  0
    2.2710  -10.3480   39.6310 C   0  0  0  0  0  0  0  0  0  0  0  0
   -0.4070  -11.6680   35.1340 N   0  0  0  0  0  0  0  0  0  0  0  0
   -1.5220  -11.6090   34.1980 C   0  0  2  0  0  0  0  0  0  0  0  0
   -2.4990  -12.7580   34.4240 C   0  0  0  0  0  0  0  0  0  0  0  0
   -3.6830  -12.6470   34.1060 O   0  0  0  0  0  0  0  0  0  0  0  0
   -1.0130  -11.6450   32.7540 C   0  0  0  0  0  0  0  0  0  0  0  0
   -0.4790  -10.3400   32.1600 C   0  0  0  0  0  0  0  0  0  0  0  0
    0.2770  -10.6060   30.8670 C   0  0  0  0  0  0  0  0  0  0  0  0
   -1.6170   -9.3570   31.9300 C   0  0  0  0  0  0  0  0  0  0  0  0
   -1.9990  -13.8600   34.9740 N   0  0  0  0  0  0  0  0  0  0  0  0
   -2.8050  -15.0650   35.1260 C   0  0  2  0  0  0  0  0  0  0  0  0
   -3.7500  -14.9680   36.3180 C   0  0  0  0  0  0  0  0  0  0  0  0
   -4.8810  -15.4490   36.2620 O   0  0  0  0  0  0  0  0  0  0  0  0
   -1.9110  -16.3000   35.2540 C   0  0  0  0  0  0  0  0  0  0  0  0
   -2.5500  -17.5700   34.7210 C   0  0  0  0  0  0  0  0  0  0  0  0
   -1.6360  -18.7730   34.8230 C   0  0  0  0  0  0  0  0  0  0  0  0
   -0.7650  -18.8360   35.6900 O   0  0  0  0  0  0  0  0  0  0  0  0
   -1.8300  -19.7380   33.9320 N   0  0  0  0  0  0  0  0  0  0  0  0
   -3.2840  -14.3460   37.3950 N   0  0  0  0  0  0  0  0  0  0  0  0
   -4.1240  -14.1490   38.5690 C   0  0  2  0  0  0  0  0  0  0  0  0
   -4.9290  -12.8570   38.4640 C   0  0  0  0  0  0  0  0  0  0  0  0
   -5.1710  -12.3470   37.3710 O   0  0  0  0  0  0  0  0  0  0  0  0
   -3.2870  -14.1350   39.8490 C   0  0  0  0  0  0  0  0  0  0  0  0
   -4.1440  -14.0790   41.0990 C   0  0  0  0  0  0  0  0  0  0  0  0
   -5.3820  -13.9720   40.9640 O   0  0  0  0  0  0  0  0  0  0  0  0
   -3.5860  -14.1380   42.2150 O   0  0  0  0  0  0  0  0  0  0  0  0
  2  1  1  6
  3  2  1  0
  4  3  2  0
  5  2  1  0
  6  5  1  0
  7  6  1  0
  8  7  1  0
  9  8  1  0
 10  3  1  0
 11 10  1  6
 12 11  1  0
 13 12  2  0
 14 11  1  0
 15 14  1  0
 14 16  1  1
 17 15  1  0
 18 12  1  0
 19 18  1  0
 20 19  1  0
 21 20  2  0
 19 22  1  6
 23 22  1  0
 24 23  1  0
 25 23  1  0
 26 20  1  0
 27 26  1  0
 28 27  1  0
 29 28  2  0
 27 30  1  1
 31 30  1  0
 32 31  1  0
 33 31  2  0
 34 32  2  0
 35 34  1  0
 35 33  1  0
 36 28  1  0
 37 36  1  0
 38 37  1  0
 39 38  2  0
 37 40  1  1
 41 40  1  0
 42 41  1  0
 43 42  1  0
 44 43  1  0
 45 44  1  0
 46 44  2  0
 47 38  1  0
 48 47  1  0
 49 48  1  0
 50 49  2  0
 48 51  1  6
 52 51  1  0
 53 52  1  0
 54 52  1  0
 55 49  1  0
 56 55  1  0
 57 56  1  0
 58 57  2  0
 56 59  1  6
 60 59  1  0
 61 60  1  0
 62 60  1  0
 63 57  1  0
 64 63  1  0
 65 64  1  0
 66 65  2  0
 64 67  1  1
 68 67  1  0
 69 68  1  0
 70 69  2  0
 71 69  1  0
 72 65  1  0
 73 72  1  0
 74 73  1  0
 75 74  2  0
 73 76  1  1
 77 76  1  0
 78 77  2  0
 79 77  1  0
M  END
$$$$
5DYD
     RDKit          3D

 75 75  0  0  0  0  0  0  0  0999 V2000
   29.5110   17.7740    6.6150 N   0  0  0  0  0  0  0  0  0  0  0  0
   28.5580   16.7230    6.2770 C   0  0  2  0  0  0  0  0  0  0  0  0
   28.3680   16.6050    4.7670 C   0  0  0  0  0  0  0  0  0  0  0  0
   28.1560   17.6000    4.0760 O   0  0  0  0  0  0  0  0  0  0  0  0
   27.2120   16.9820    6.9550 C   0  0  0  0  0  0  0  0  0  0  0  0
   28.4510   15.3770    4.2650 N   0  0  0  0  0  0  0  0  0  0  0  0
   28.2470   15.0910    2.8500 C   0  0  2  0  0  0  0  0  0  0  0  0
   26.8180   15.4140    2.4340 C   0  0  0  0  0  0  0  0  0  0  0  0
   26.5640   15.8550    1.3110 O   0  0  0  0  0  0  0  0  0  0  0  0
   28.5470   13.6170    2.5410 C   0  0  2  0  0  0  0  0  0  0  0  0
   29.9700   13.2720    2.9780 C   0  0  0  0  0  0  0  0  0  0  0  0
   28.3460   13.3150    1.0620 C   0  0  0  0  0  0  0  0  0  0  0  0
   30.3410   11.8330    2.7460 C   0  0  0  0  0  0  0  0  0  0  0  0
   25.8930   15.1920    3.3610 N   0  0  0  0  0  0  0  0  0  0  0  0
   24.4780   15.4460    3.1360 C   0  0  2  0  0  0  0  0  0  0  0  0
   24.2240   16.9110    2.7930 C   0  0  0  0  0  0  0  0  0  0  0  0
   23.3260   17.2250    2.0140 O   0  0  0  0  0  0  0  0  0  0  0  0
   23.6720   15.0410    4.3710 C   0  0  0  0  0  0  0  0  0  0  0  0
   22.1500   15.0760    4.2520 C   0  0  0  0  0  0  0  0  0  0  0  0
   21.6910   14.1550    3.1410 C   0  0  0  0  0  0  0  0  0  0  0  0
   21.5080   14.6860    5.5730 C   0  0  0  0  0  0  0  0  0  0  0  0
   25.0210   17.7980    3.3830 N   0  0  0  0  0  0  0  0  0  0  0  0
   24.9570   19.2250    3.0830 C   0  0  2  0  0  0  0  0  0  0  0  0
   25.1330   19.4810    1.5960 C   0  0  0  0  0  0  0  0  0  0  0  0
   24.3010   20.1310    0.9600 O   0  0  0  0  0  0  0  0  0  0  0  0
   26.0310   19.9950    3.8550 C   0  0  0  0  0  0  0  0  0  0  0  0
   25.7810   20.0730    5.3290 C   0  0  0  0  0  0  0  0  0  0  0  0
   24.5610   19.7730    5.8900 N   0  0  0  0  0  0  0  0  0  0  0  0
   26.5960   20.4190    6.3520 C   0  0  0  0  0  0  0  0  0  0  0  0
   24.6330   19.9310    7.2030 C   0  0  0  0  0  0  0  0  0  0  0  0
   25.8570   20.3210    7.5070 N   0  0  0  0  0  0  0  0  0  0  0  0
   26.2310   18.9630    1.0560 N   0  0  0  0  0  0  0  0  0  0  0  0
   26.5700   19.1370   -0.3470 C   0  0  2  0  0  0  0  0  0  0  0  0
   25.5210   18.5130   -1.2580 C   0  0  0  0  0  0  0  0  0  0  0  0
   25.1250   19.1000   -2.2630 O   0  0  0  0  0  0  0  0  0  0  0  0
   27.9410   18.5250   -0.6310 C   0  0  0  0  0  0  0  0  0  0  0  0
   28.4390   18.7220   -2.0470 C   0  0  0  0  0  0  0  0  0  0  0  0
   29.6620   17.8630   -2.3020 C   0  0  0  0  0  0  0  0  0  0  0  0
   29.3200   16.4480   -2.4160 N   0  0  0  0  0  0  0  0  0  0  0  0
   30.1870   15.4540   -2.2510 C   0  0  0  0  0  0  0  0  0  0  0  0
   31.4510   15.7170   -1.9500 N   0  0  0  0  0  0  0  0  0  0  0  0
   29.7890   14.1940   -2.3760 N   0  0  0  0  0  0  0  0  0  0  0  0
   25.0660   17.3210   -0.8890 N   0  0  0  0  0  0  0  0  0  0  0  0
   24.1370   16.5650   -1.7200 C   0  0  2  0  0  0  0  0  0  0  0  0
   22.7380   17.1760   -1.7150 C   0  0  0  0  0  0  0  0  0  0  0  0
   21.9480   16.9380   -2.6290 O   0  0  0  0  0  0  0  0  0  0  0  0
   24.0860   15.1040   -1.2600 C   0  0  0  0  0  0  0  0  0  0  0  0
   25.0610   14.1400   -1.9530 C   0  0  0  0  0  0  0  0  0  0  0  0
   26.4750   14.6970   -1.9960 C   0  0  0  0  0  0  0  0  0  0  0  0
   25.0560   12.7760   -1.2830 C   0  0  0  0  0  0  0  0  0  0  0  0
   22.4410   17.9740   -0.6930 N   0  0  0  0  0  0  0  0  0  0  0  0
   21.1320   18.6100   -0.5730 C   0  0  2  0  0  0  0  0  0  0  0  0
   21.0390   19.9280   -1.3400 C   0  0  0  0  0  0  0  0  0  0  0  0
   19.9940   20.5760   -1.3470 O   0  0  0  0  0  0  0  0  0  0  0  0
   20.7900   18.8450    0.8990 C   0  0  0  0  0  0  0  0  0  0  0  0
   19.9860   17.7350    1.5740 C   0  0  0  0  0  0  0  0  0  0  0  0
   19.8730   17.9800    3.0680 C   0  0  0  0  0  0  0  0  0  0  0  0
   18.6080   17.6400    0.9410 C   0  0  0  0  0  0  0  0  0  0  0  0
   22.1330   20.3250   -1.9810 N   0  0  0  0  0  0  0  0  0  0  0  0
   22.1330   21.5210   -2.8190 C   0  0  2  0  0  0  0  0  0  0  0  0
   22.7080   21.2200   -4.2050 C   0  0  0  0  0  0  0  0  0  0  0  0
   23.5460   21.9630   -4.7200 O   0  0  0  0  0  0  0  0  0  0  0  0
   22.9120   22.6560   -2.1410 C   0  0  0  0  0  0  0  0  0  0  0  0
   24.2020   22.2270   -1.4580 C   0  0  0  0  0  0  0  0  0  0  0  0
   24.7820   23.3080   -0.5580 C   0  0  0  0  0  0  0  0  0  0  0  0
   24.2790   24.4300   -0.5110 O   0  0  0  0  0  0  0  0  0  0  0  0
   25.8460   22.9710    0.1640 N   0  0  0  0  0  0  0  0  0  0  0  0
   22.2440   20.1240   -4.8010 N   0  0  0  0  0  0  0  0  0  0  0  0
   22.6450   19.7480   -6.1530 C   0  0  2  0  0  0  0  0  0  0  0  0
   21.9300   20.6090   -7.1890 C   0  0  0  0  0  0  0  0  0  0  0  0
   21.5850   20.1400   -8.2760 O   0  0  0  0  0  0  0  0  0  0  0  0
   22.3560   18.2690   -6.4130 C   0  0  0  0  0  0  0  0  0  0  0  0
   23.3190   17.3510   -5.6910 C   0  0  0  0  0  0  0  0  0  0  0  0
   24.5300   17.6620   -5.6530 O   0  0  0  0  0  0  0  0  0  0  0  0
   22.8660   16.3110   -5.1640 O   0  0  0  0  0  0  0  0  0  0  0  0
  2  1  1  0
  3  2  1  0
  4  3  2  0
  2  5  1  1
  6  3  1  0
  7  6  1  1
  8  7  1  0
  9  8  2  0
 10  7  1  0
 11 10  1  0
 10 12  1  6
 13 11  1  0
 14  8  1  0
 15 14  1  0
 16 15  1  0
 17 16  2  0
 15 18  1  1
 19 18  1  0
 20 19  1  0
 21 19  1  0
 22 16  1  0
 23 22  1  0
 24 23  1  0
 25 24  2  0
 23 26  1  1
 27 26  1  0
 28 27  1  0
 29 27  2  0
 30 28  2  0
 31 30  1  0
 31 29  1  0
 32 24  1  0
 33 32  1  0
 34 33  1  0
 35 34  2  0
 33 36  1  1
 37 36  1  0
 38 37  1  0
 39 38  1  0
 40 39  1  0
 41 40  1  0
 42 40  2  0
 43 34  1  0
 44 43  1  0
 45 44  1  0
 46 45  2  0
 44 47  1  1
 48 47  1  0
 49 48  1  0
 50 48  1  0
 51 45  1  0
 52 51  1  0
 53 52  1  0
 54 53  2  0
 52 55  1  1
 56 55  1  0
 57 56  1  0
 58 56  1  0
 59 53  1  0
 60 59  1  0
 61 60  1  0
 62 61  2  0
 60 63  1  1
 64 63  1  0
 65 64  1  0
 66 65  2  0
 67 65  1  0
 68 61  1  0
 69 68  1  0
 70 69  1  0
 71 70  2  0
 69 72  1  6
 73 72  1  0
 74 73  2  0
 75 73  1  0
M  END
$$$$
2FAI
     RDKit          3D

 20 22  0  0  0  0  0  0  0  0999 V2000
    3.6660    0.2770   -3.0930 C   0  0  0  0  0  0  0  0  0  0  0  0
    3.9640   -0.4210   -4.4090 C   0  0  2  0  0  0  0  0  0  0  0  0
    5.4600   -0.4160   -4.7500 C   0  0  1  0  0  0  0  0  0  0  0  0
    5.5760   -1.4260   -5.8560 C   0  0  0  0  0  0  0  0  0  0  0  0
    6.7550   -2.4130   -5.8780 C   0  0  0  0  0  0  0  0  0  0  0  0
    4.5540   -1.4350   -6.8140 C   0  0  0  0  0  0  0  0  0  0  0  0
    3.4280   -0.5890   -6.8690 C   0  0  0  0  0  0  0  0  0  0  0  0
    3.2010    0.2170   -5.5720 C   0  0  1  0  0  0  0  0  0  0  0  0
    1.7120    0.3400   -5.2700 C   0  0  0  0  0  0  0  0  0  0  0  0
    1.3190   -0.6960   -4.3670 O   0  0  0  0  0  0  0  0  0  0  0  0
    3.7370    1.6170   -5.7650 C   0  0  0  0  0  0  0  0  0  0  0  0
    5.0690    1.4540   -6.2780 O   0  0  0  0  0  0  0  0  0  0  0  0
    5.9280    0.9750   -5.2420 C   0  0  2  0  0  0  0  0  0  0  0  0
    7.3800    1.0900   -5.7800 C   0  0  0  0  0  0  0  0  0  0  0  0
    7.7380    0.7920   -7.1010 C   0  0  0  0  0  0  0  0  0  0  0  0
    9.0780    0.9200   -7.5080 C   0  0  0  0  0  0  0  0  0  0  0  0
   10.0410    1.3690   -6.6040 C   0  0  0  0  0  0  0  0  0  0  0  0
   11.3500    1.5310   -6.9570 O   0  0  0  0  0  0  0  0  0  0  0  0
    9.6670    1.6780   -5.3040 C   0  0  0  0  0  0  0  0  0  0  0  0
    8.3500    1.5390   -4.9020 C   0  0  0  0  0  0  0  0  0  0  0  0
  2  1  1  1
  3  2  1  0
  3  4  1  6
  5  4  1  0
  6  4  1  0
  7  6  1  0
  8  7  1  0
  8  2  1  0
  8  9  1  1
 10  9  1  0
 11  8  1  0
 12 11  1  0
 13 12  1  0
 13  3  1  0
 13 14  1  6
 15 14  1  0
 16 15  1  0
 17 16  1  0
 18 17  1  0
 19 17  1  0
 20 14  1  0
 20 19  1  0
M  END
$$$$
5DZH
     RDKit          3D

 24 26  0  0  0  0  0  0  0  0999 V2000
   20.5340   -0.3780    5.2350 C   0  0  0  0  0  0  0  0  0  0  0  0
   21.7930    0.1510    5.4360 C   0  0  0  0  0  0  0  0  0  0  0  0
   22.8650   -0.6960    5.6240 C   0  0  0  0  0  0  0  0  0  0  0  0
   24.0800   -0.1940    5.7990 O   0  0  0  0  0  0  0  0  0  0  0  0
   22.7080   -2.0810    5.6150 C   0  0  0  0  0  0  0  0  0  0  0  0
   21.4460   -2.6130    5.4160 C   0  0  0  0  0  0  0  0  0  0  0  0
   20.3540   -1.7630    5.2290 C   0  0  0  0  0  0  0  0  0  0  0  0
   19.0710   -2.3200    5.0430 C   0  0  2  0  0  0  0  0  0  0  0  0
   18.3950   -1.9110    3.8860 C   0  0  1  0  0  0  0  0  0  0  0  0
   17.0540   -1.4860    3.8890 C   0  0  0  0  0  0  0  0  0  0  0  0
   16.4390   -1.0620    2.7220 C   0  0  0  0  0  0  0  0  0  0  0  0
   17.1810   -1.0100    1.5450 C   0  0  0  0  0  0  0  0  0  0  0  0
   16.6210   -0.6090    0.4270 O   0  0  0  0  0  0  0  0  0  0  0  0
   18.4990   -1.3940    1.5150 C   0  0  0  0  0  0  0  0  0  0  0  0
   19.0970   -1.8440    2.6830 C   0  0  0  0  0  0  0  0  0  0  0  0
   18.4720   -3.0940    6.0600 C   0  0  2  0  0  0  0  0  0  0  0  0
   19.0670   -3.1950    7.3260 C   0  0  0  0  0  0  0  0  0  0  0  0
   19.5610   -4.5760    7.6770 C   0  0  0  0  0  0  0  0  0  0  0  0
   17.4050   -3.9470    5.7550 C   0  0  0  0  0  0  0  0  0  0  0  0
   17.5310   -5.3700    6.3080 C   0  0  0  0  0  0  0  0  0  0  0  0
   18.3860   -5.5230    7.5790 C   0  0  1  0  0  0  0  0  0  0  0  0
   18.8620   -6.9540    7.7050 C   0  0  0  0  0  0  0  0  0  0  0  0
   17.7170   -7.9550    7.5990 C   0  0  0  0  0  0  0  0  0  0  0  0
   18.0030   -8.9690    8.5320 O   0  0  0  0  0  0  0  0  0  0  0  0
  2  1  1  0
  3  2  1  0
  4  3  1  0
  5  3  1  0
  6  5  1  0
  7  6  1  0
  7  1  1  0
  8  7  1  1
  9  8  1  0
  9 10  1  1
 11 10  1  0
 12 11  1  0
 13 12  1  0
 14 12  1  0
 15 14  1  0
 15  9  1  0
 16  8  1  0
 16 17  1  6
 18 17  1  0
 19 16  1  0
 20 19  1  0
 21 20  1  0
 21 18  1  0
 21 22  1  6
 23 22  1  0
 24 23  1  0
M  END
$$$$
5KRL
     RDKit          3D

 62 62  0  0  0  0  0  0  0  0999 V2000
    2.1030  -18.5070  -10.1980 N   0  0  0  0  0  0  0  0  0  0  0  0
    2.3660  -17.1160   -9.8460 C   0  0  2  0  0  0  0  0  0  0  0  0
    3.4800  -16.5360  -10.7130 C   0  0  0  0  0  0  0  0  0  0  0  0
    4.5000  -17.1850  -10.9400 O   0  0  0  0  0  0  0  0  0  0  0  0
    2.7300  -16.9970   -8.3650 C   0  0  0  0  0  0  0  0  0  0  0  0
    3.2770  -15.3130  -11.1950 N   0  0  0  0  0  0  0  0  0  0  0  0
    4.2310  -14.6670  -12.0930 C   0  0  2  0  0  0  0  0  0  0  0  0
    5.5750  -14.4190  -11.4120 C   0  0  0  0  0  0  0  0  0  0  0  0
    6.6300  -14.6420  -12.0090 O   0  0  0  0  0  0  0  0  0  0  0  0
    3.6720  -13.3360  -12.6330 C   0  0  2  0  0  0  0  0  0  0  0  0
    2.5380  -13.6100  -13.6220 C   0  0  0  0  0  0  0  0  0  0  0  0
    4.7610  -12.5280  -13.3170 C   0  0  0  0  0  0  0  0  0  0  0  0
    1.2610  -12.8780  -13.3020 C   0  0  0  0  0  0  0  0  0  0  0  0
    5.5330  -13.9710  -10.1610 N   0  0  0  0  0  0  0  0  0  0  0  0
    6.7490  -13.7480   -9.3850 C   0  0  2  0  0  0  0  0  0  0  0  0
    7.5560  -15.0360   -9.2690 C   0  0  0  0  0  0  0  0  0  0  0  0
    8.7850  -15.0200   -9.3230 O   0  0  0  0  0  0  0  0  0  0  0  0
    6.4090  -13.2140   -7.9910 C   0  0  0  0  0  0  0  0  0  0  0  0
    7.5870  -12.9210   -7.0590 C   0  0  0  0  0  0  0  0  0  0  0  0
    8.4320  -11.7840   -7.6060 C   0  0  0  0  0  0  0  0  0  0  0  0
    7.1020  -12.6010   -5.6550 C   0  0  0  0  0  0  0  0  0  0  0  0
    6.8440  -16.1490   -9.1230 N   0  0  0  0  0  0  0  0  0  0  0  0
    7.4550  -17.4640   -8.9760 C   0  0  2  0  0  0  0  0  0  0  0  0
    8.3020  -17.8330  -10.1910 C   0  0  0  0  0  0  0  0  0  0  0  0
    9.3950  -18.3830  -10.0540 O   0  0  0  0  0  0  0  0  0  0  0  0
    6.3690  -18.5200   -8.7540 C   0  0  0  0  0  0  0  0  0  0  0  0
    6.8360  -19.7250   -8.0020 C   0  0  0  0  0  0  0  0  0  0  0  0
    7.0700  -19.7080   -6.6430 N   0  0  0  0  0  0  0  0  0  0  0  0
    7.1040  -20.9860   -8.4140 C   0  0  0  0  0  0  0  0  0  0  0  0
    7.4660  -20.9060   -6.2520 C   0  0  0  0  0  0  0  0  0  0  0  0
    7.4950  -21.7000   -7.3080 N   0  0  0  0  0  0  0  0  0  0  0  0
    7.7930  -17.5200  -11.3790 N   0  0  0  0  0  0  0  0  0  0  0  0
    8.4690  -17.8730  -12.6230 C   0  0  2  0  0  0  0  0  0  0  0  0
    9.6360  -16.9390  -12.9340 C   0  0  0  0  0  0  0  0  0  0  0  0
   10.6460  -17.3660  -13.4940 O   0  0  0  0  0  0  0  0  0  0  0  0
    7.4730  -17.8680  -13.7860 C   0  0  0  0  0  0  0  0  0  0  0  0
    9.4940  -15.6680  -12.5720 N   0  0  0  0  0  0  0  0  0  0  0  0
   10.5330  -14.6790  -12.8450 C   0  0  2  0  0  0  0  0  0  0  0  0
   11.7770  -14.9310  -11.9970 C   0  0  0  0  0  0  0  0  0  0  0  0
   12.8980  -14.6730  -12.4360 O   0  0  0  0  0  0  0  0  0  0  0  0
   10.0020  -13.2620  -12.6070 C   0  0  0  0  0  0  0  0  0  0  0  0
    8.8900  -12.8090  -13.5580 C   0  0  0  0  0  0  0  0  0  0  0  0
    8.5310  -11.3480  -13.3380 C   0  0  0  0  0  0  0  0  0  0  0  0
    9.2860  -13.0520  -15.0070 C   0  0  0  0  0  0  0  0  0  0  0  0
   11.5740  -15.4380  -10.7850 N   0  0  0  0  0  0  0  0  0  0  0  0
   12.6840  -15.7930   -9.9080 C   0  0  2  0  0  0  0  0  0  0  0  0
   13.3840  -17.0600  -10.3890 C   0  0  0  0  0  0  0  0  0  0  0  0
   14.6110  -17.1590  -10.3430 O   0  0  0  0  0  0  0  0  0  0  0  0
   12.1960  -15.9810   -8.4690 C   0  0  0  0  0  0  0  0  0  0  0  0
   11.8980  -14.7200   -7.6570 C   0  0  0  0  0  0  0  0  0  0  0  0
   11.1750  -15.0750   -6.3670 C   0  0  0  0  0  0  0  0  0  0  0  0
   13.1830  -13.9670   -7.3550 C   0  0  0  0  0  0  0  0  0  0  0  0
   12.5940  -18.0250  -10.8540 N   0  0  0  0  0  0  0  0  0  0  0  0
   13.1180  -19.3180  -11.2860 C   0  0  2  0  0  0  0  0  0  0  0  0
   13.9920  -19.2010  -12.5310 C   0  0  0  0  0  0  0  0  0  0  0  0
   14.8250  -20.0680  -12.7960 O   0  0  0  0  0  0  0  0  0  0  0  0
   11.9700  -20.2950  -11.5490 C   0  0  0  0  0  0  0  0  0  0  0  0
   13.7990  -18.1270  -13.2890 N   0  0  0  0  0  0  0  0  0  0  0  0
   14.5690  -17.8940  -14.5060 C   0  0  2  0  0  0  0  0  0  0  0  0
   16.0430  -17.6500  -14.1950 C   0  0  0  0  0  0  0  0  0  0  0  0
   16.9020  -17.7860  -15.0670 O   0  0  0  0  0  0  0  0  0  0  0  0
   13.9940  -16.7080  -15.2840 C   0  0  0  0  0  0  0  0  0  0  0  0
  2  1  1  0
  3  2  1  0
  4  3  2  0
  2  5  1  1
  6  3  1  0
  7  6  1  1
  8  7  1  0
  9  8  2  0
 10  7  1  0
 11 10  1  0
 10 12  1  6
 13 11  1  0
 14  8  1  0
 15 14  1  0
 16 15  1  0
 17 16  2  0
 15 18  1  1
 19 18  1  0
 20 19  1  0
 21 19  1  0
 22 16  1  0
 23 22  1  0
 24 23  1  0
 25 24  2  0
 23 26  1  6
 27 26  1  0
 28 27  1  0
 29 27  2  0
 30 28  2  0
 31 30  1  0
 31 29  1  0
 32 24  1  0
 33 32  1  0
 34 33  1  0
 35 34  2  0
 33 36  1  6
 37 34  1  0
 38 37  1  0
 39 38  1  0
 40 39  2  0
 38 41  1  1
 42 41  1  0
 43 42  1  0
 44 42  1  0
 45 39  1  0
 46 45  1  0
 47 46  1  0
 48 47  2  0
 46 49  1  1
 50 49  1  0
 51 50  1  0
 52 50  1  0
 53 47  1  0
 54 53  1  0
 55 54  1  0
 56 55  2  0
 54 57  1  6
 58 55  1  0
 59 58  1  0
 60 59  1  0
 61 60  2  0
 59 62  1  1
M  END
$$$$
4ZN7
     RDKit          3D

 79 79  0  0  0  0  0  0  0  0999 V2000
   10.2950  -17.7560   -6.9320 N   0  0  0  0  0  0  0  0  0  0  0  0
   10.3260  -16.3740   -6.4590 C   0  0  2  0  0  0  0  0  0  0  0  0
   11.2880  -15.5410   -7.2950 C   0  0  0  0  0  0  0  0  0  0  0  0
   12.4900  -15.8050   -7.3140 O   0  0  0  0  0  0  0  0  0  0  0  0
   10.7270  -16.3160   -4.9840 C   0  0  0  0  0  0  0  0  0  0  0  0
    9.7900  -15.5080   -4.1040 C   0  0  0  0  0  0  0  0  0  0  0  0
   10.2230  -15.5810   -2.6480 C   0  0  0  0  0  0  0  0  0  0  0  0
    9.0960  -15.1840   -1.7070 C   0  0  0  0  0  0  0  0  0  0  0  0
    9.5190  -15.2250   -0.2770 N   0  0  0  0  0  0  0  0  0  0  0  0
   10.7500  -14.5400   -7.9820 N   0  0  0  0  0  0  0  0  0  0  0  0
   11.5420  -13.6880   -8.8640 C   0  0  2  0  0  0  0  0  0  0  0  0
   12.7550  -13.0770   -8.1650 C   0  0  0  0  0  0  0  0  0  0  0  0
   13.8740  -13.1750   -8.6640 O   0  0  0  0  0  0  0  0  0  0  0  0
   10.6820  -12.5540   -9.4500 C   0  0  2  0  0  0  0  0  0  0  0  0
    9.5160  -13.1410  -10.2490 C   0  0  0  0  0  0  0  0  0  0  0  0
   11.5290  -11.6370  -10.3150 C   0  0  0  0  0  0  0  0  0  0  0  0
    8.6010  -12.1030  -10.8550 C   0  0  0  0  0  0  0  0  0  0  0  0
   12.5290  -12.4600   -7.0100 N   0  0  0  0  0  0  0  0  0  0  0  0
   13.6050  -11.8330   -6.2460 C   0  0  2  0  0  0  0  0  0  0  0  0
   14.7360  -12.8160   -5.9620 C   0  0  0  0  0  0  0  0  0  0  0  0
   15.9170  -12.4820   -6.0960 O   0  0  0  0  0  0  0  0  0  0  0  0
   13.0620  -11.2590   -4.9340 C   0  0  0  0  0  0  0  0  0  0  0  0
   14.0860  -10.7000   -3.9440 C   0  0  0  0  0  0  0  0  0  0  0  0
   14.9540   -9.6500   -4.6080 C   0  0  0  0  0  0  0  0  0  0  0  0
   13.3880  -10.1250   -2.7220 C   0  0  0  0  0  0  0  0  0  0  0  0
   14.3590  -14.0300   -5.5770 N   0  0  0  0  0  0  0  0  0  0  0  0
   15.3090  -15.1100   -5.3420 C   0  0  2  0  0  0  0  0  0  0  0  0
   16.1390  -15.3790   -6.6030 C   0  0  0  0  0  0  0  0  0  0  0  0
   17.3640  -15.4580   -6.5410 O   0  0  0  0  0  0  0  0  0  0  0  0
   14.5550  -16.3690   -4.8940 C   0  0  0  0  0  0  0  0  0  0  0  0
   15.4380  -17.4910   -4.4380 C   0  0  0  0  0  0  0  0  0  0  0  0
   16.5400  -17.9110   -5.1500 N   0  0  0  0  0  0  0  0  0  0  0  0
   15.3560  -18.3030   -3.3580 C   0  0  0  0  0  0  0  0  0  0  0  0
   17.1100  -18.9240   -4.5190 C   0  0  0  0  0  0  0  0  0  0  0  0
   16.4110  -19.1810   -3.4300 N   0  0  0  0  0  0  0  0  0  0  0  0
   15.4700  -15.5050   -7.7450 N   0  0  0  0  0  0  0  0  0  0  0  0
   16.1660  -15.7390   -9.0060 C   0  0  2  0  0  0  0  0  0  0  0  0
   17.1270  -14.6040   -9.3420 C   0  0  0  0  0  0  0  0  0  0  0  0
   18.2990  -14.8370   -9.6420 O   0  0  0  0  0  0  0  0  0  0  0  0
   15.1730  -15.9210  -10.1540 C   0  0  0  0  0  0  0  0  0  0  0  0
   15.8550  -16.0830  -11.5030 C   0  0  0  0  0  0  0  0  0  0  0  0
   14.8680  -16.2740  -12.6420 C   0  0  0  0  0  0  0  0  0  0  0  0
   14.1880  -15.0350  -13.0100 N   0  0  0  0  0  0  0  0  0  0  0  0
   12.8860  -14.8260  -12.8490 C   0  0  0  0  0  0  0  0  0  0  0  0
   12.1200  -15.7740  -12.3280 N   0  0  0  0  0  0  0  0  0  0  0  0
   12.3470  -13.6710  -13.2140 N   0  0  0  0  0  0  0  0  0  0  0  0
   16.6200  -13.3770   -9.2920 N   0  0  0  0  0  0  0  0  0  0  0  0
   17.4180  -12.1950   -9.5980 C   0  0  2  0  0  0  0  0  0  0  0  0
   18.6050  -12.0410   -8.6490 C   0  0  0  0  0  0  0  0  0  0  0  0
   19.6670  -11.5690   -9.0450 O   0  0  0  0  0  0  0  0  0  0  0  0
   16.5430  -10.9420   -9.5530 C   0  0  0  0  0  0  0  0  0  0  0  0
   15.3670  -10.9410  -10.5310 C   0  0  0  0  0  0  0  0  0  0  0  0
   14.6450   -9.6060  -10.5170 C   0  0  0  0  0  0  0  0  0  0  0  0
   15.8390  -11.2880  -11.9340 C   0  0  0  0  0  0  0  0  0  0  0  0
   18.4240  -12.4390   -7.3950 N   0  0  0  0  0  0  0  0  0  0  0  0
   19.5290  -12.4420   -6.4490 C   0  0  2  0  0  0  0  0  0  0  0  0
   20.5700  -13.5030   -6.8070 C   0  0  0  0  0  0  0  0  0  0  0  0
   21.7680  -13.2910   -6.6120 O   0  0  0  0  0  0  0  0  0  0  0  0
   19.0150  -12.6650   -5.0270 C   0  0  0  0  0  0  0  0  0  0  0  0
   18.4770  -11.4080   -4.3500 C   0  0  0  0  0  0  0  0  0  0  0  0
   17.8070  -11.7560   -3.0340 C   0  0  0  0  0  0  0  0  0  0  0  0
   19.6000  -10.4030   -4.1310 C   0  0  0  0  0  0  0  0  0  0  0  0
   20.1150  -14.6350   -7.3400 N   0  0  0  0  0  0  0  0  0  0  0  0
   21.0130  -15.7440   -7.6660 C   0  0  2  0  0  0  0  0  0  0  0  0
   22.0060  -15.4130   -8.7790 C   0  0  0  0  0  0  0  0  0  0  0  0
   23.2170  -15.5190   -8.5780 O   0  0  0  0  0  0  0  0  0  0  0  0
   20.2090  -16.9880   -8.0500 C   0  0  0  0  0  0  0  0  0  0  0  0
   19.5510  -17.6660   -6.8660 C   0  0  0  0  0  0  0  0  0  0  0  0
   19.0470  -19.0590   -7.1770 C   0  0  0  0  0  0  0  0  0  0  0  0
   18.3470  -19.2770   -8.1680 O   0  0  0  0  0  0  0  0  0  0  0  0
   19.4030  -20.0150   -6.3260 N   0  0  0  0  0  0  0  0  0  0  0  0
   21.5010  -15.0190   -9.9470 N   0  0  0  0  0  0  0  0  0  0  0  0
   22.3720  -14.7090  -11.0810 C   0  0  2  0  0  0  0  0  0  0  0  0
   23.0900  -13.3740  -10.8870 C   0  0  0  0  0  0  0  0  0  0  0  0
   22.6470  -12.3360  -11.3790 O   0  0  0  0  0  0  0  0  0  0  0  0
   21.5750  -14.7000  -12.3930 C   0  0  0  0  0  0  0  0  0  0  0  0
   20.2170  -14.0390  -12.2510 C   0  0  0  0  0  0  0  0  0  0  0  0
   20.0080  -13.3010  -11.2660 O   0  0  0  0  0  0  0  0  0  0  0  0
   19.3560  -14.2530  -13.1300 O   0  0  0  0  0  0  0  0  0  0  0  0
  2  1  1  6
  3  2  1  0
  4  3  2  0
  5  2  1  0
  6  5  1  0
  7  6  1  0
  8  7  1  0
  9  8  1  0
 10  3  1  0
 11 10  1  1
 12 11  1  0
 13 12  2  0
 14 11  1  0
 15 14  1  0
 14 16  1  6
 17 15  1  0
 18 12  1  0
 19 18  1  0
 20 19  1  0
 21 20  2  0
 19 22  1  1
 23 22  1  0
 24 23  1  0
 25 23  1  0
 26 20  1  0
 27 26  1  0
 28 27  1  0
 29 28  2  0
 27 30  1  6
 31 30  1  0
 32 31  1  0
 33 31  2  0
 34 32  2  0
 35 33  1  0
 35 34  1  0
 36 28  1  0
 37 36  1  0
 38 37  1  0
 39 38  2  0
 37 40  1  6
 41 40  1  0
 42 41  1  0
 43 42  1  0
 44 43  1  0
 45 44  1  0
 46 44  2  0
 47 38  1  0
 48 47  1  0
 49 48  1  0
 50 49  2  0
 48 51  1  1
 52 51  1  0
 53 52  1  0
 54 52  1  0
 55 49  1  0
 56 55  1  0
 57 56  1  0
 58 57  2  0
 56 59  1  1
 60 59  1  0
 61 60  1  0
 62 60  1  0
 63 57  1  0
 64 63  1  0
 65 64  1  0
 66 65  2  0
 64 67  1  6
 68 67  1  0
 69 68  1  0
 70 69  2  0
 71 69  1  0
 72 65  1  0
 73 72  1  0
 74 73  1  0
 75 74  2  0
 73 76  1  6
 77 76  1  0
 78 77  2  0
 79 77  1  0
M  END
$$$$
4ZNV
     RDKit          3D

 79 79  0  0  0  0  0  0  0  0999 V2000
   -9.7430   -1.5200    6.6420 N   0  0  0  0  0  0  0  0  0  0  0  0
   -9.6050   -0.0660    6.7110 C   0  0  2  0  0  0  0  0  0  0  0  0
  -10.5840    0.5500    7.7050 C   0  0  0  0  0  0  0  0  0  0  0  0
  -11.7510    0.1540    7.7590 O   0  0  0  0  0  0  0  0  0  0  0  0
   -9.8360    0.5600    5.3350 C   0  0  0  0  0  0  0  0  0  0  0  0
   -8.7090    0.3790    4.3340 C   0  0  0  0  0  0  0  0  0  0  0  0
   -9.1190    0.9870    3.0020 C   0  0  0  0  0  0  0  0  0  0  0  0
   -7.9960    0.9830    1.9890 C   0  0  0  0  0  0  0  0  0  0  0  0
   -8.5060    1.3960    0.6540 N   0  0  0  0  0  0  0  0  0  0  0  0
  -10.1080    1.5240    8.4790 N   0  0  0  0  0  0  0  0  0  0  0  0
  -10.9610    2.2660    9.4100 C   0  0  2  0  0  0  0  0  0  0  0  0
  -12.1190    2.9600    8.6960 C   0  0  0  0  0  0  0  0  0  0  0  0
  -13.2290    3.0360    9.2270 O   0  0  0  0  0  0  0  0  0  0  0  0
  -10.1680    3.3370   10.2000 C   0  0  2  0  0  0  0  0  0  0  0  0
   -9.2180    2.6860   11.2040 C   0  0  0  0  0  0  0  0  0  0  0  0
  -11.1120    4.2780   10.9310 C   0  0  0  0  0  0  0  0  0  0  0  0
   -7.7640    2.8020   10.8320 C   0  0  0  0  0  0  0  0  0  0  0  0
  -11.8560    3.4840    7.4990 N   0  0  0  0  0  0  0  0  0  0  0  0
  -12.8950    4.1560    6.7260 C   0  0  2  0  0  0  0  0  0  0  0  0
  -13.9790    3.1550    6.3580 C   0  0  0  0  0  0  0  0  0  0  0  0
  -15.1810    3.4330    6.4570 O   0  0  0  0  0  0  0  0  0  0  0  0
  -12.3070    4.7910    5.4560 C   0  0  0  0  0  0  0  0  0  0  0  0
  -13.3380    5.3360    4.4650 C   0  0  0  0  0  0  0  0  0  0  0  0
  -14.2570    6.3630    5.1150 C   0  0  0  0  0  0  0  0  0  0  0  0
  -12.6270    5.9550    3.2830 C   0  0  0  0  0  0  0  0  0  0  0  0
  -13.5330    1.9820    5.9290 N   0  0  0  0  0  0  0  0  0  0  0  0
  -14.4190    0.8850    5.5800 C   0  0  2  0  0  0  0  0  0  0  0  0
  -15.3080    0.5370    6.7710 C   0  0  0  0  0  0  0  0  0  0  0  0
  -16.5200    0.3140    6.6320 O   0  0  0  0  0  0  0  0  0  0  0  0
  -13.5730   -0.3240    5.1800 C   0  0  0  0  0  0  0  0  0  0  0  0
  -14.3700   -1.4880    4.6820 C   0  0  0  0  0  0  0  0  0  0  0  0
  -14.7260   -1.6320    3.3590 N   0  0  0  0  0  0  0  0  0  0  0  0
  -14.8720   -2.5670    5.3270 C   0  0  0  0  0  0  0  0  0  0  0  0
  -15.4140   -2.7500    3.2100 C   0  0  0  0  0  0  0  0  0  0  0  0
  -15.5200   -3.3340    4.3900 N   0  0  0  0  0  0  0  0  0  0  0  0
  -14.6950    0.5060    7.9500 N   0  0  0  0  0  0  0  0  0  0  0  0
  -15.4010    0.1540    9.1710 C   0  0  2  0  0  0  0  0  0  0  0  0
  -16.4310    1.2160    9.5390 C   0  0  0  0  0  0  0  0  0  0  0  0
  -17.5890    0.8930    9.8080 O   0  0  0  0  0  0  0  0  0  0  0  0
  -14.4150   -0.0520   10.3240 C   0  0  0  0  0  0  0  0  0  0  0  0
  -14.7420   -1.2550   11.1910 C   0  0  0  0  0  0  0  0  0  0  0  0
  -14.1550   -1.1230   12.5810 C   0  0  0  0  0  0  0  0  0  0  0  0
  -14.6810    0.0430   13.2820 N   0  0  0  0  0  0  0  0  0  0  0  0
  -13.9260    1.0280   13.7520 C   0  0  0  0  0  0  0  0  0  0  0  0
  -14.4820    2.0540   14.3820 N   0  0  0  0  0  0  0  0  0  0  0  0
  -12.6110    0.9830   13.5960 N   0  0  0  0  0  0  0  0  0  0  0  0
  -16.0100    2.4800    9.5470 N   0  0  0  0  0  0  0  0  0  0  0  0
  -16.9000    3.5790    9.9180 C   0  0  2  0  0  0  0  0  0  0  0  0
  -18.0800    3.7310    8.9620 C   0  0  0  0  0  0  0  0  0  0  0  0
  -19.1720    4.1420    9.3700 O   0  0  0  0  0  0  0  0  0  0  0  0
  -16.1310    4.8970   10.0480 C   0  0  0  0  0  0  0  0  0  0  0  0
  -15.1270    4.9640   11.2020 C   0  0  0  0  0  0  0  0  0  0  0  0
  -14.4380    6.3120   11.2390 C   0  0  0  0  0  0  0  0  0  0  0  0
  -15.8170    4.6830   12.5280 C   0  0  0  0  0  0  0  0  0  0  0  0
  -17.8630    3.4050    7.6910 N   0  0  0  0  0  0  0  0  0  0  0  0
  -18.9340    3.4470    6.7030 C   0  0  2  0  0  0  0  0  0  0  0  0
  -19.9380    2.3250    6.9310 C   0  0  0  0  0  0  0  0  0  0  0  0
  -21.1380    2.4930    6.7120 O   0  0  0  0  0  0  0  0  0  0  0  0
  -18.3660    3.3290    5.2900 C   0  0  0  0  0  0  0  0  0  0  0  0
  -17.9100    4.6230    4.6230 C   0  0  0  0  0  0  0  0  0  0  0  0
  -17.1660    4.3110    3.3190 C   0  0  0  0  0  0  0  0  0  0  0  0
  -19.1230    5.5220    4.3870 C   0  0  0  0  0  0  0  0  0  0  0  0
  -19.4270    1.1730    7.3510 N   0  0  0  0  0  0  0  0  0  0  0  0
  -20.2430   -0.0190    7.5380 C   0  0  2  0  0  0  0  0  0  0  0  0
  -21.1640    0.1220    8.7460 C   0  0  0  0  0  0  0  0  0  0  0  0
  -22.2810   -0.4000    8.7450 O   0  0  0  0  0  0  0  0  0  0  0  0
  -19.3420   -1.2400    7.7110 C   0  0  0  0  0  0  0  0  0  0  0  0
  -19.9310   -2.5360    7.2020 C   0  0  0  0  0  0  0  0  0  0  0  0
  -18.9370   -3.6690    7.2720 C   0  0  0  0  0  0  0  0  0  0  0  0
  -18.1480   -3.7580    8.2150 O   0  0  0  0  0  0  0  0  0  0  0  0
  -18.9510   -4.5340    6.2660 N   0  0  0  0  0  0  0  0  0  0  0  0
  -20.6880    0.8240    9.7730 N   0  0  0  0  0  0  0  0  0  0  0  0
  -21.4710    1.0440   10.9870 C   0  0  2  0  0  0  0  0  0  0  0  0
  -22.9210    1.3970   10.6640 C   0  0  0  0  0  0  0  0  0  0  0  0
  -23.2900    2.5700   10.6140 O   0  0  0  0  0  0  0  0  0  0  0  0
  -20.8460    2.1410   11.8570 C   0  0  0  0  0  0  0  0  0  0  0  0
  -19.6890    1.6360   12.7000 C   0  0  0  0  0  0  0  0  0  0  0  0
  -19.5590    0.4030   12.8620 O   0  0  0  0  0  0  0  0  0  0  0  0
  -18.9180    2.4740   13.2160 O   0  0  0  0  0  0  0  0  0  0  0  0
  2  1  1  6
  3  2  1  0
  4  3  2  0
  5  2  1  0
  6  5  1  0
  7  6  1  0
  8  7  1  0
  9  8  1  0
 10  3  1  0
 11 10  1  6
 12 11  1  0
 13 12  2  0
 14 11  1  0
 15 14  1  0
 14 16  1  1
 17 15  1  0
 18 12  1  0
 19 18  1  0
 20 19  1  0
 21 20  2  0
 19 22  1  6
 23 22  1  0
 24 23  1  0
 25 23  1  0
 26 20  1  0
 27 26  1  0
 28 27  1  0
 29 28  2  0
 27 30  1  1
 31 30  1  0
 32 31  1  0
 33 31  2  0
 34 32  2  0
 35 34  1  0
 35 33  1  0
 36 28  1  0
 37 36  1  0
 38 37  1  0
 39 38  2  0
 37 40  1  1
 41 40  1  0
 42 41  1  0
 43 42  1  0
 44 43  1  0
 45 44  1  0
 46 44  2  0
 47 38  1  0
 48 47  1  0
 49 48  1  0
 50 49  2  0
 48 51  1  6
 52 51  1  0
 53 52  1  0
 54 52  1  0
 55 49  1  0
 56 55  1  0
 57 56  1  0
 58 57  2  0
 56 59  1  6
 60 59  1  0
 61 60  1  0
 62 60  1  0
 63 57  1  0
 64 63  1  0
 65 64  1  0
 66 65  2  0
 64 67  1  1
 68 67  1  0
 69 68  1  0
 70 69  2  0
 71 69  1  0
 72 65  1  0
 73 72  1  0
 74 73  1  0
 75 74  2  0
 73 76  1  6
 77 76  1  0
 78 77  2  0
 79 77  1  0
M  END
$$$$
2P15
     RDKit          3D

 32 36  0  0  0  0  0  0  0  0999 V2000
  -36.7690    1.4740   21.4410 C   0  0  0  0  0  0  0  0  0  0  0  0
  -36.7330    2.9750   21.0600 C   0  0  2  0  0  0  0  0  0  0  0  0
  -36.4740    3.0800   19.5290 C   0  0  0  0  0  0  0  0  0  0  0  0
  -35.0260    2.6480   19.1350 C   0  0  0  0  0  0  0  0  0  0  0  0
  -33.9710    3.4520   19.9770 C   0  0  2  0  0  0  0  0  0  0  0  0
  -32.4930    3.2460   19.5510 C   0  0  1  0  0  0  0  0  0  0  0  0
  -32.1850    3.0220   18.2180 C   0  0  0  0  0  0  0  0  0  0  0  0
  -30.8480    2.8710   17.8490 C   0  0  0  0  0  0  0  0  0  0  0  0
  -29.8390    2.9430   18.8160 C   0  0  0  0  0  0  0  0  0  0  0  0
  -28.5390    2.7850   18.4800 O   0  0  0  0  0  0  0  0  0  0  0  0
  -30.1470    3.1670   20.1440 C   0  0  0  0  0  0  0  0  0  0  0  0
  -31.4690    3.3480   20.5160 C   0  0  2  0  0  0  0  0  0  0  0  0
  -31.7280    3.5610   22.0260 C   0  0  0  0  0  0  0  0  0  0  0  0
  -33.1350    4.1440   22.2660 C   0  0  0  0  0  0  0  0  0  0  0  0
  -34.1850    3.2790   21.5130 C   0  0  1  0  0  0  0  0  0  0  0  0
  -35.6350    3.7630   21.8190 C   0  0  2  0  0  0  0  0  0  0  0  0
  -36.1520    3.7540   23.2820 C   0  0  0  0  0  0  0  0  0  0  0  0
  -37.6710    3.9290   23.1000 C   0  0  0  0  0  0  0  0  0  0  0  0
  -37.9770    3.7810   21.5860 C   0  0  2  0  0  0  0  0  0  0  0  0
  -39.2210    3.0820   21.3760 O   0  0  0  0  0  0  0  0  0  0  0  0
  -38.0230    5.0580   20.9440 C   0  0  0  0  0  0  0  0  0  0  0  0
  -37.7730    6.3080   21.5410 C   0  0  0  0  0  0  0  0  0  0  0  0
  -37.7500    7.5330   20.8310 C   0  0  0  0  0  0  0  0  0  0  0  0
  -38.6210    7.7700   19.7630 C   0  0  0  0  0  0  0  0  0  0  0  0
  -38.5550    8.9770   19.0450 C   0  0  0  0  0  0  0  0  0  0  0  0
  -37.6220    9.9690   19.3950 C   0  0  0  0  0  0  0  0  0  0  0  0
  -36.7400    9.7390   20.4450 C   0  0  0  0  0  0  0  0  0  0  0  0
  -36.7980    8.5310   21.1620 C   0  0  0  0  0  0  0  0  0  0  0  0
  -35.7960    8.3650   22.3380 C   0  0  1  0  0  0  0  0  0  0  0  0
  -34.9920    9.4060   22.3590 F   0  0  0  0  0  0  0  0  0  0  0  0
  -36.3940    8.3520   23.5370 F   0  0  0  0  0  0  0  0  0  0  0  0
  -35.0690    7.2540   22.2500 F   0  0  0  0  0  0  0  0  0  0  0  0
  2  1  1  1
  3  2  1  0
  4  3  1  0
  5  4  1  6
  6  5  1  0
  6  7  1  6
  8  7  1  0
  9  8  1  0
 10  9  1  0
 11  9  1  0
 12 11  1  1
 12  6  1  0
 13 12  1  0
 14 13  1  0
 15  5  1  0
 15 14  1  1
 16 15  1  0
 16  2  1  0
 16 17  1  1
 18 17  1  0
 19  2  1  0
 19 18  1  0
 19 20  1  1
 21 19  1  0
 22 21  1  0
 23 22  1  0
 24 23  1  0
 25 24  1  0
 26 25  1  0
 27 26  1  0
 28 27  1  0
 28 23  1  0
 29 28  1  0
 29 30  1  1
 31 29  1  0
 32 29  1  0
M  END
$$$$
7OQ7
     RDKit          3D

 71 72  0  0  0  0  0  0  0  0999 V2000
   12.4530    7.7210   14.2410 N   0  0  0  0  0  0  0  0  0  0  0  0
   13.5890    8.6520   14.2030 C   0  0  2  0  0  0  0  0  0  0  0  0
   13.2460    9.8410   13.2930 C   0  0  0  0  0  0  0  0  0  0  0  0
   12.6520    9.6650   12.2280 O   0  0  0  0  0  0  0  0  0  0  0  0
   14.8700    7.9440   13.7340 C   0  0  0  0  0  0  0  0  0  0  0  0
   14.8580    7.5550   12.2870 C   0  0  0  0  0  0  0  0  0  0  0  0
   15.2740    8.4490   11.3120 C   0  0  0  0  0  0  0  0  0  0  0  0
   14.4290    6.2940   11.8970 C   0  0  0  0  0  0  0  0  0  0  0  0
   15.2590    8.0930    9.9740 C   0  0  0  0  0  0  0  0  0  0  0  0
   14.4110    5.9310   10.5620 C   0  0  0  0  0  0  0  0  0  0  0  0
   14.8300    6.8290    9.5970 C   0  0  0  0  0  0  0  0  0  0  0  0
   13.7740    8.9870   15.0940 H   0  0  0  0  0  0  0  0  0  0  0  0
   15.6230    8.5400   13.8730 H   0  0  0  0  0  0  0  0  0  0  0  0
   14.9870    7.1350   14.2560 H   0  0  0  0  0  0  0  0  0  0  0  0
   15.5660    9.2970   11.5590 H   0  0  0  0  0  0  0  0  0  0  0  0
   14.1490    5.6850   12.5410 H   0  0  0  0  0  0  0  0  0  0  0  0
   15.5370    8.7010    9.3280 H   0  0  0  0  0  0  0  0  0  0  0  0
   14.1170    5.0850   10.3140 H   0  0  0  0  0  0  0  0  0  0  0  0
   14.8250    6.5860    8.7000 H   0  0  0  0  0  0  0  0  0  0  0  0
   13.6240   11.0480   13.7030 N   0  0  0  0  0  0  0  0  0  0  0  0
   13.0560   12.2440   13.0740 C   0  0  2  0  0  0  0  0  0  0  0  0
   13.7330   12.6130   11.7710 C   0  0  0  0  0  0  0  0  0  0  0  0
   14.8550   12.2230   11.4600 O   0  0  0  0  0  0  0  0  0  0  0  0
   13.2630   13.3330   14.1340 C   0  0  0  0  0  0  0  0  0  0  0  0
   14.4810   12.9080   14.8580 C   0  0  0  0  0  0  0  0  0  0  0  0
   14.5250   11.3850   14.8250 C   0  0  0  0  0  0  0  0  0  0  0  0
   12.1090   12.1160   12.9080 H   0  0  0  0  0  0  0  0  0  0  0  0
   13.3920   14.1940   13.7070 H   0  0  0  0  0  0  0  0  0  0  0  0
   12.4970   13.3690   14.7290 H   0  0  0  0  0  0  0  0  0  0  0  0
   15.2610   13.2780   14.4170 H   0  0  0  0  0  0  0  0  0  0  0  0
   14.4360   13.2240   15.7740 H   0  0  0  0  0  0  0  0  0  0  0  0
   15.4260   11.0690   14.6530 H   0  0  0  0  0  0  0  0  0  0  0  0
   14.1960   11.0110   15.6580 H   0  0  0  0  0  0  0  0  0  0  0  0
   13.0220   13.4270   10.9920 N   0  0  0  0  0  0  0  0  0  0  0  0
   13.5000   13.7920    9.6860 C   0  0  2  0  0  0  0  0  0  0  0  0
   14.5760   14.8770    9.7600 C   0  0  0  0  0  0  0  0  0  0  0  0
   14.4650   15.7970   10.5770 O   0  0  0  0  0  0  0  0  0  0  0  0
   12.3300   14.2760    8.8120 C   0  0  0  0  0  0  0  0  0  0  0  0
   12.2640   13.7730   11.2060 H   0  0  0  0  0  0  0  0  0  0  0  0
   13.8970   13.0090    9.2750 H   0  0  0  0  0  0  0  0  0  0  0  0
   12.6670   14.5030    7.9310 H   0  0  0  0  0  0  0  0  0  0  0  0
   11.6740   13.5650    8.7410 H   0  0  0  0  0  0  0  0  0  0  0  0
   11.9280   15.0560    9.2250 H   0  0  0  0  0  0  0  0  0  0  0  0
   15.5790   14.7460    8.9000 N   0  0  0  0  0  0  0  0  0  0  0  0
   16.6300   15.7280    8.7100 C   0  0  1  0  0  0  0  0  0  0  0  0
   17.9080   15.3500    9.5390 C   0  0  1  0  0  0  0  0  0  0  0  0
   17.6500   15.4840   11.0460 C   0  0  0  0  0  0  0  0  0  0  0  0
   18.1770   13.9860    9.2020 O   0  0  0  0  0  0  0  0  0  0  0  0
   19.6880   13.4540    9.5900 P   0  0  0  0  0  0  0  0  0  0  0  0
   19.7830   12.1190    8.7000 O   0  0  0  0  0  0  0  0  0  0  0  0
   19.5840   13.0380   11.0110 O   0  0  0  0  0  0  0  0  0  0  0  0
   20.8280   14.4840    9.2620 O   0  0  0  0  0  0  0  0  0  0  0  0
   16.9260   15.7670    7.2210 C   0  0  0  0  0  0  0  0  0  0  0  0
   16.6260   14.7930    6.5060 O   0  0  0  0  0  0  0  0  0  0  0  0
   17.5100   16.8670    6.7450 N   0  0  0  0  0  0  0  0  0  0  0  0
   17.7940   17.0170    5.3240 C   0  0  2  0  0  0  0  0  0  0  0  0
   19.1790   17.5450    5.0540 C   0  0  0  0  0  0  0  0  0  0  0  0
   19.9400   17.9210    5.9520 O   0  0  0  0  0  0  0  0  0  0  0  0
   16.7660   17.9510    4.6470 C   0  0  0  0  0  0  0  0  0  0  0  0
   15.3820   17.4360    4.8260 C   0  0  0  0  0  0  0  0  0  0  0  0
   16.8960   19.3690    5.2240 C   0  0  0  0  0  0  0  0  0  0  0  0
   19.5740   17.6370    3.8980 O   0  0  0  0  0  0  0  0  0  0  0  0
   17.7500   17.5380    7.2270 H   0  0  0  0  0  0  0  0  0  0  0  0
   17.7390   16.1270    4.9430 H   0  0  0  0  0  0  0  0  0  0  0  0
   16.9440   17.9830    3.6940 H   0  0  0  0  0  0  0  0  0  0  0  0
   14.7690   17.9980    4.3280 H   0  0  0  0  0  0  0  0  0  0  0  0
   15.3390   16.5250    4.4950 H   0  0  0  0  0  0  0  0  0  0  0  0
   15.1580   17.4550    5.7700 H   0  0  0  0  0  0  0  0  0  0  0  0
   16.0980   19.8740    5.0030 H   0  0  0  0  0  0  0  0  0  0  0  0
   16.9930   19.3100    6.1880 H   0  0  0  0  0  0  0  0  0  0  0  0
   17.6760   19.7970    4.8380 H   0  0  0  0  0  0  0  0  0  0  0  0
  2  1  1  0
  3  2  1  0
  4  3  2  0
  5  2  1  0
  6  5  1  0
  7  6  2  0
  8  6  1  0
  9  7  1  0
 10  8  2  0
 11 10  1  0
 11  9  2  0
  2 12  1  1
 13  5  1  0
 14  5  1  0
 15  7  1  0
 16  8  1  0
 17  9  1  0
 18 10  1  0
 19 11  1  0
 20  3  1  0
 21 20  1  0
 22 21  1  0
 23 22  2  0
 24 21  1  0
 25 24  1  0
 26 25  1  0
 26 20  1  0
 21 27  1  6
 28 24  1  0
 29 24  1  0
 30 25  1  0
 31 25  1  0
 32 26  1  0
 33 26  1  0
 34 22  1  0
 35 34  1  0
 36 35  1  0
 37 36  2  0
 38 35  1  0
 39 34  1  0
 35 40  1  6
 41 38  1  0
 42 38  1  0
 43 38  1  0
 44 36  1  0
 45 44  1  6
 46 45  1  0
 46 47  1  1
 48 46  1  0
 49 48  1  0
 50 49  1  0
 51 49  1  0
 52 49  1  0
 53 45  1  0
 54 53  1  0
 55 53  1  0
 56 55  1  0
 57 56  1  0
 58 57  2  0
 59 56  1  0
 60 59  1  0
 61 59  1  0
 62 57  1  0
 63 55  1  0
 56 64  1  6
 65 59  1  0
 66 60  1  0
 67 60  1  0
 68 60  1  0
 69 61  1  0
 70 61  1  0
 71 61  1  0
M  END
$$$$
8W07
     RDKit          3D

 72 77  0  0  0  0  0  0  0  0999 V2000
  -27.6520  -37.9490  -10.4130 N   0  0  0  0  0  0  0  0  0  0  0  0
  -25.3680  -38.4500   -8.2130 C   0  0  2  0  0  0  0  0  0  0  0  0
  -24.3330  -40.5310   -8.3900 C   0  0  1  0  0  0  0  0  0  0  0  0
  -23.7790  -40.6720   -7.0330 C   0  0  0  0  0  0  0  0  0  0  0  0
  -24.4370  -41.4770   -6.1010 C   0  0  0  0  0  0  0  0  0  0  0  0
  -24.8700  -38.0480   -9.6020 C   0  0  2  0  0  0  0  0  0  0  0  0
  -25.8490  -36.5780  -11.6340 O   0  0  0  0  0  0  0  0  0  0  0  0
  -26.2110  -36.9360  -10.2690 S   0  0  1  0  0  0  0  0  0  0  0  0
  -22.2180  -41.0330   -3.2490 O   0  0  0  0  0  0  0  0  0  0  0  0
  -25.7130  -39.9150   -8.5310 C   0  0  2  0  0  0  0  0  0  0  0  0
  -18.5490  -41.0130  -11.6490 O   0  0  0  0  0  0  0  0  0  0  0  0
  -25.8820  -39.9210   -9.9150 O   0  0  0  0  0  0  0  0  0  0  0  0
  -28.3450  -40.8400  -15.1900 O   0  0  0  0  0  0  0  0  0  0  0  0
  -26.3750  -35.8880   -9.2310 O   0  0  0  0  0  0  0  0  0  0  0  0
  -23.9230  -41.6070   -4.8170 C   0  0  0  0  0  0  0  0  0  0  0  0
  -22.7580  -40.9210   -4.4940 C   0  0  0  0  0  0  0  0  0  0  0  0
  -22.0930  -40.1130   -5.4120 C   0  0  0  0  0  0  0  0  0  0  0  0
  -22.6140  -39.9830   -6.6870 C   0  0  0  0  0  0  0  0  0  0  0  0
  -23.6780  -40.1430   -9.5300 C   0  0  0  0  0  0  0  0  0  0  0  0
  -22.3210  -40.3550  -10.0860 C   0  0  0  0  0  0  0  0  0  0  0  0
  -21.8140  -39.5180  -11.0970 C   0  0  0  0  0  0  0  0  0  0  0  0
  -20.5460  -39.7250  -11.6290 C   0  0  0  0  0  0  0  0  0  0  0  0
  -19.7910  -40.7910  -11.1500 C   0  0  0  0  0  0  0  0  0  0  0  0
  -20.2790  -41.6360  -10.1590 C   0  0  0  0  0  0  0  0  0  0  0  0
  -21.5470  -41.4210   -9.6280 C   0  0  0  0  0  0  0  0  0  0  0  0
  -24.6830  -39.3710  -10.3370 C   0  0  2  0  0  0  0  0  0  0  0  0
  -28.5640  -37.6900   -9.2510 C   0  0  2  0  0  0  0  0  0  0  0  0
  -28.5720  -38.5640   -7.9490 C   0  0  2  0  0  0  0  0  0  0  0  0
  -29.8920  -38.5930   -7.1140 C   0  0  2  0  0  0  0  0  0  0  0  0
  -30.7670  -37.3220   -7.0950 C   0  0  1  0  0  0  0  0  0  0  0  0
  -30.8560  -36.7180   -8.5050 C   0  0  1  0  0  0  0  0  0  0  0  0
  -30.0690  -37.5140   -9.5840 C   0  0  2  0  0  0  0  0  0  0  0  0
  -27.8310  -38.6910  -11.6160 C   0  0  2  0  0  0  0  0  0  0  0  0
  -27.7100  -40.0700  -11.6910 C   0  0  0  0  0  0  0  0  0  0  0  0
  -27.9240  -40.7870  -12.8550 C   0  0  0  0  0  0  0  0  0  0  0  0
  -28.1850  -40.1040  -14.0380 C   0  0  0  0  0  0  0  0  0  0  0  0
  -28.8260  -42.1630  -15.1600 C   0  0  2  0  0  0  0  0  0  0  0  0
  -28.2650  -38.7020  -14.0060 C   0  0  0  0  0  0  0  0  0  0  0  0
  -28.0840  -38.0070  -12.8110 C   0  0  0  0  0  0  0  0  0  0  0  0
  -26.2350  -37.8730   -7.8920 H   0  0  0  0  0  0  0  0  0  0  0  0
  -24.6000  -38.3560   -7.4460 H   0  0  0  0  0  0  0  0  0  0  0  0
  -25.3440  -42.0020   -6.3630 H   0  0  0  0  0  0  0  0  0  0  0  0
  -23.9090  -37.5370   -9.6660 H   0  0  0  0  0  0  0  0  0  0  0  0
  -21.2620  -41.0440   -3.2450 H   0  0  0  0  0  0  0  0  0  0  0  0
  -26.6180  -40.3580   -8.1140 H   0  0  0  0  0  0  0  0  0  0  0  0
  -18.4270  -41.9160  -11.9500 H   0  0  0  0  0  0  0  0  0  0  0  0
  -24.4220  -42.2300   -4.0880 H   0  0  0  0  0  0  0  0  0  0  0  0
  -21.1860  -39.5940   -5.1400 H   0  0  0  0  0  0  0  0  0  0  0  0
  -22.1130  -39.3490   -7.4030 H   0  0  0  0  0  0  0  0  0  0  0  0
  -22.4090  -38.7000  -11.4740 H   0  0  0  0  0  0  0  0  0  0  0  0
  -20.1600  -39.0710  -12.3960 H   0  0  0  0  0  0  0  0  0  0  0  0
  -19.6800  -42.4590   -9.7970 H   0  0  0  0  0  0  0  0  0  0  0  0
  -21.9210  -42.0850   -8.8630 H   0  0  0  0  0  0  0  0  0  0  0  0
  -24.5580  -39.3950  -11.4190 H   0  0  0  0  0  0  0  0  0  0  0  0
  -28.0390  -36.7600   -9.0300 H   0  0  0  0  0  0  0  0  0  0  0  0
  -27.7810  -38.2220   -7.2780 H   0  0  0  0  0  0  0  0  0  0  0  0
  -28.3370  -39.5990   -8.2050 H   0  0  0  0  0  0  0  0  0  0  0  0
  -29.6340  -38.8390   -6.0830 H   0  0  0  0  0  0  0  0  0  0  0  0
  -30.5050  -39.4180   -7.4800 H   0  0  0  0  0  0  0  0  0  0  0  0
  -31.7670  -37.5600   -6.7260 H   0  0  0  0  0  0  0  0  0  0  0  0
  -30.3520  -36.5900   -6.3990 H   0  0  0  0  0  0  0  0  0  0  0  0
  -31.9040  -36.6550   -8.8030 H   0  0  0  0  0  0  0  0  0  0  0  0
  -30.4860  -35.6920   -8.4790 H   0  0  0  0  0  0  0  0  0  0  0  0
  -30.5320  -38.4940   -9.7030 H   0  0  0  0  0  0  0  0  0  0  0  0
  -30.1720  -37.0020  -10.5420 H   0  0  0  0  0  0  0  0  0  0  0  0
  -27.4350  -40.6200  -10.8020 H   0  0  0  0  0  0  0  0  0  0  0  0
  -27.8880  -41.8660  -12.8400 H   0  0  0  0  0  0  0  0  0  0  0  0
  -29.2870  -42.4000  -16.1200 H   0  0  0  0  0  0  0  0  0  0  0  0
  -29.5650  -42.2580  -14.3630 H   0  0  0  0  0  0  0  0  0  0  0  0
  -27.9930  -42.8430  -14.9730 H   0  0  0  0  0  0  0  0  0  0  0  0
  -28.4670  -38.1330  -14.9000 H   0  0  0  0  0  0  0  0  0  0  0  0
  -28.1420  -36.9280  -12.8140 H   0  0  0  0  0  0  0  0  0  0  0  0
  3  4  1  1
  5  4  1  0
  6  2  1  0
  8  1  1  0
  8  7  1  6
  8  6  1  0
 10  3  1  0
 10  2  1  0
 12 10  1  0
 14  8  1  0
 15  5  1  0
 16 15  1  0
 16  9  1  0
 17 16  1  0
 18  4  1  0
 18 17  1  0
 19  3  1  0
 20 19  1  0
 21 20  1  0
 22 21  1  0
 23 22  1  0
 23 11  1  0
 24 23  1  0
 25 20  1  0
 25 24  1  0
 26 19  1  0
 26 12  1  0
 26  6  1  0
 27  1  1  0
 28 27  1  0
 29 28  1  0
 30 29  1  0
 31 30  1  0
 32 31  1  0
 32 27  1  0
 33  1  1  6
 34 33  1  0
 35 34  1  0
 36 35  1  0
 36 13  1  0
 37 13  1  0
 38 36  1  0
 39 38  1  0
 39 33  1  0
  2 40  1  1
 41  2  1  0
 42  5  1  0
  6 43  1  1
 44  9  1  0
 10 45  1  1
 46 11  1  0
 47 15  1  0
 48 17  1  0
 49 18  1  0
 50 21  1  0
 51 22  1  0
 52 24  1  0
 53 25  1  0
 26 54  1  6
 27 55  1  1
 28 56  1  1
 57 28  1  0
 29 58  1  1
 59 29  1  0
 30 60  1  1
 61 30  1  0
 31 62  1  6
 63 31  1  0
 32 64  1  6
 65 32  1  0
 66 34  1  0
 67 35  1  0
 37 68  1  6
 69 37  1  0
 70 37  1  0
 71 38  1  0
 72 39  1  0
M  END
$$$$
5E0W
     RDKit          3D

 79 79  0  0  0  0  0  0  0  0999 V2000
   -9.7740   -0.9150    6.7110 N   0  0  0  0  0  0  0  0  0  0  0  0
   -9.4920    0.5080    6.8650 C   0  0  2  0  0  0  0  0  0  0  0  0
  -10.4780    1.1740    7.8250 C   0  0  0  0  0  0  0  0  0  0  0  0
  -11.6320    0.7540    7.9350 O   0  0  0  0  0  0  0  0  0  0  0  0
   -9.5190    1.2060    5.5010 C   0  0  0  0  0  0  0  0  0  0  0  0
   -8.3910    0.7670    4.5730 C   0  0  0  0  0  0  0  0  0  0  0  0
   -8.2880    1.6360    3.3270 C   0  0  0  0  0  0  0  0  0  0  0  0
   -9.3100    1.2440    2.2720 C   0  0  0  0  0  0  0  0  0  0  0  0
   -9.0470    1.9290    0.9730 N   0  0  0  0  0  0  0  0  0  0  0  0
  -10.0140    2.2060    8.5240 N   0  0  0  0  0  0  0  0  0  0  0  0
  -10.8470    2.9270    9.4830 C   0  0  2  0  0  0  0  0  0  0  0  0
  -12.0330    3.5960    8.7980 C   0  0  0  0  0  0  0  0  0  0  0  0
  -13.1500    3.5860    9.3170 O   0  0  0  0  0  0  0  0  0  0  0  0
  -10.0420    3.9970   10.2360 C   0  0  2  0  0  0  0  0  0  0  0  0
   -8.8030    3.3770   10.8800 C   0  0  0  0  0  0  0  0  0  0  0  0
  -10.9090    4.6810   11.2850 C   0  0  0  0  0  0  0  0  0  0  0  0
   -8.0180    4.3470   11.7200 C   0  0  0  0  0  0  0  0  0  0  0  0
  -11.7760    4.1790    7.6310 N   0  0  0  0  0  0  0  0  0  0  0  0
  -12.8220    4.7990    6.8300 C   0  0  2  0  0  0  0  0  0  0  0  0
  -13.9000    3.7790    6.4830 C   0  0  0  0  0  0  0  0  0  0  0  0
  -15.0930    4.0710    6.5470 O   0  0  0  0  0  0  0  0  0  0  0  0
  -12.2280    5.4060    5.5560 C   0  0  0  0  0  0  0  0  0  0  0  0
  -13.2030    5.9960    4.5360 C   0  0  0  0  0  0  0  0  0  0  0  0
  -14.0590    7.0720    5.1720 C   0  0  0  0  0  0  0  0  0  0  0  0
  -12.4390    6.5570    3.3470 C   0  0  0  0  0  0  0  0  0  0  0  0
  -13.4610    2.5780    6.1190 N   0  0  0  0  0  0  0  0  0  0  0  0
  -14.3610    1.4760    5.8100 C   0  0  2  0  0  0  0  0  0  0  0  0
  -15.2420    1.1440    7.0130 C   0  0  0  0  0  0  0  0  0  0  0  0
  -16.4410    0.8980    6.8760 O   0  0  0  0  0  0  0  0  0  0  0  0
  -13.5550    0.2470    5.3780 C   0  0  0  0  0  0  0  0  0  0  0  0
  -14.3950   -0.9200    4.9640 C   0  0  0  0  0  0  0  0  0  0  0  0
  -14.9870   -1.7720    5.8720 N   0  0  0  0  0  0  0  0  0  0  0  0
  -14.7330   -1.3840    3.7380 C   0  0  0  0  0  0  0  0  0  0  0  0
  -15.6580   -2.7070    5.2230 C   0  0  0  0  0  0  0  0  0  0  0  0
  -15.5190   -2.4950    3.9270 N   0  0  0  0  0  0  0  0  0  0  0  0
  -14.6350    1.1540    8.1950 N   0  0  0  0  0  0  0  0  0  0  0  0
  -15.3470    0.8460    9.4270 C   0  0  2  0  0  0  0  0  0  0  0  0
  -16.3600    1.9320    9.7710 C   0  0  0  0  0  0  0  0  0  0  0  0
  -17.5190    1.6400   10.0680 O   0  0  0  0  0  0  0  0  0  0  0  0
  -14.3600    0.6660   10.5820 C   0  0  0  0  0  0  0  0  0  0  0  0
  -15.9180    3.1840    9.7250 N   0  0  0  0  0  0  0  0  0  0  0  0
  -16.7690    4.3100   10.0950 C   0  0  2  0  0  0  0  0  0  0  0  0
  -17.9600    4.4440    9.1530 C   0  0  0  0  0  0  0  0  0  0  0  0
  -19.0250    4.9130    9.5510 O   0  0  0  0  0  0  0  0  0  0  0  0
  -15.9560    5.6070   10.1190 C   0  0  0  0  0  0  0  0  0  0  0  0
  -15.4330    6.0530   11.4910 C   0  0  0  0  0  0  0  0  0  0  0  0
  -14.9590    4.8700   12.3210 C   0  0  0  0  0  0  0  0  0  0  0  0
  -14.3140    7.0730   11.3370 C   0  0  0  0  0  0  0  0  0  0  0  0
  -17.7800    4.0180    7.9080 N   0  0  0  0  0  0  0  0  0  0  0  0
  -18.8690    4.0250    6.9390 C   0  0  2  0  0  0  0  0  0  0  0  0
  -19.8920    2.9370    7.2460 C   0  0  0  0  0  0  0  0  0  0  0  0
  -21.0620    3.0550    6.8820 O   0  0  0  0  0  0  0  0  0  0  0  0
  -18.3260    3.8520    5.5210 C   0  0  0  0  0  0  0  0  0  0  0  0
  -17.7640    5.1210    4.8780 C   0  0  0  0  0  0  0  0  0  0  0  0
  -17.0340    4.7920    3.5860 C   0  0  0  0  0  0  0  0  0  0  0  0
  -18.8850    6.1190    4.6250 C   0  0  0  0  0  0  0  0  0  0  0  0
  -19.4470    1.8810    7.9200 N   0  0  0  0  0  0  0  0  0  0  0  0
  -20.3270    0.7730    8.2780 C   0  0  2  0  0  0  0  0  0  0  0  0
  -21.1490    1.0570    9.5280 C   0  0  0  0  0  0  0  0  0  0  0  0
  -22.2860    0.6010    9.6430 O   0  0  0  0  0  0  0  0  0  0  0  0
  -19.5170   -0.5080    8.4850 C   0  0  0  0  0  0  0  0  0  0  0  0
  -19.2460   -1.2750    7.2100 C   0  0  0  0  0  0  0  0  0  0  0  0
  -18.5040   -2.5710    7.4530 C   0  0  0  0  0  0  0  0  0  0  0  0
  -17.7550   -2.7010    8.4230 O   0  0  0  0  0  0  0  0  0  0  0  0
  -18.7120   -3.5430    6.5740 N   0  0  0  0  0  0  0  0  0  0  0  0
  -20.5650    1.8050   10.4600 N   0  0  0  0  0  0  0  0  0  0  0  0
  -21.1930    2.0690   11.7520 C   0  0  2  0  0  0  0  0  0  0  0  0
  -22.5850    2.6810   11.6180 C   0  0  0  0  0  0  0  0  0  0  0  0
  -22.7340    3.8980   11.5170 O   0  0  0  0  0  0  0  0  0  0  0  0
  -20.3060    2.9870   12.5960 C   0  0  0  0  0  0  0  0  0  0  0  0
  -18.9970    2.3310   12.9870 C   0  0  0  0  0  0  0  0  0  0  0  0
  -18.9350    1.0830   12.9970 O   0  0  0  0  0  0  0  0  0  0  0  0
  -18.0310    3.0630   13.2880 O   0  0  0  0  0  0  0  0  0  0  0  0
  -23.5990    1.8200   11.6180 N   0  0  0  0  0  0  0  0  0  0  0  0
  -24.9870    2.2580   11.5490 C   0  0  2  0  0  0  0  0  0  0  0  0
  -25.4680    2.7460   12.9100 C   0  0  0  0  0  0  0  0  0  0  0  0
  -25.4570    1.9950   13.8870 O   0  0  0  0  0  0  0  0  0  0  0  0
  -25.8870    1.1240   11.0530 C   0  0  0  0  0  0  0  0  0  0  0  0
  -25.4510    0.6360    9.7960 O   0  0  0  0  0  0  0  0  0  0  0  0
  2  1  1  6
  3  2  1  0
  4  3  2  0
  5  2  1  0
  6  5  1  0
  7  6  1  0
  8  7  1  0
  9  8  1  0
 10  3  1  0
 11 10  1  6
 12 11  1  0
 13 12  2  0
 14 11  1  0
 15 14  1  0
 14 16  1  1
 17 15  1  0
 18 12  1  0
 19 18  1  0
 20 19  1  0
 21 20  2  0
 19 22  1  6
 23 22  1  0
 24 23  1  0
 25 23  1  0
 26 20  1  0
 27 26  1  0
 28 27  1  0
 29 28  2  0
 27 30  1  1
 31 30  1  0
 32 31  1  0
 33 31  2  0
 34 32  2  0
 35 34  1  0
 35 33  1  0
 36 28  1  0
 37 36  1  0
 38 37  1  0
 39 38  2  0
 37 40  1  1
 41 38  1  0
 42 41  1  0
 43 42  1  0
 44 43  2  0
 42 45  1  6
 46 45  1  0
 47 46  1  0
 48 46  1  0
 49 43  1  0
 50 49  1  0
 51 50  1  0
 52 51  2  0
 50 53  1  6
 54 53  1  0
 55 54  1  0
 56 54  1  0
 57 51  1  0
 58 57  1  0
 59 58  1  0
 60 59  2  0
 58 61  1  1
 62 61  1  0
 63 62  1  0
 64 63  2  0
 65 63  1  0
 66 59  1  0
 67 66  1  0
 68 67  1  0
 69 68  2  0
 67 70  1  1
 71 70  1  0
 72 71  2  0
 73 71  1  0
 74 68  1  0
 75 74  1  0
 76 75  1  0
 77 76  2  0
 75 78  1  1
 79 78  1  0
M  END
$$$$
4ZNW
     RDKit          3D

 77 77  0  0  0  0  0  0  0  0999 V2000
   31.6160   35.3740    9.0800 N   0  0  0  0  0  0  0  0  0  0  0  0
   30.8000   35.2670    7.8770 C   0  0  2  0  0  0  0  0  0  0  0  0
   30.3590   33.8290    7.6270 C   0  0  0  0  0  0  0  0  0  0  0  0
   30.9360   32.8870    8.1700 O   0  0  0  0  0  0  0  0  0  0  0  0
   31.5630   35.7950    6.6620 C   0  0  0  0  0  0  0  0  0  0  0  0
   29.3320   33.6700    6.7990 N   0  0  0  0  0  0  0  0  0  0  0  0
   28.7970   32.3510    6.4850 C   0  0  2  0  0  0  0  0  0  0  0  0
   28.5510   32.2000    4.9880 C   0  0  0  0  0  0  0  0  0  0  0  0
   28.2690   33.1770    4.2950 O   0  0  0  0  0  0  0  0  0  0  0  0
   27.5000   32.1000    7.2600 C   0  0  0  0  0  0  0  0  0  0  0  0
   28.6600   30.9700    4.4990 N   0  0  0  0  0  0  0  0  0  0  0  0
   28.4290   30.6700    3.0900 C   0  0  2  0  0  0  0  0  0  0  0  0
   26.9850   30.9660    2.7070 C   0  0  0  0  0  0  0  0  0  0  0  0
   26.6990   31.4050    1.5910 O   0  0  0  0  0  0  0  0  0  0  0  0
   28.7490   29.1980    2.7720 C   0  0  2  0  0  0  0  0  0  0  0  0
   30.1660   28.8540    3.2320 C   0  0  0  0  0  0  0  0  0  0  0  0
   28.5780   28.9130    1.2870 C   0  0  0  0  0  0  0  0  0  0  0  0
   30.5690   27.4310    2.9370 C   0  0  0  0  0  0  0  0  0  0  0  0
   26.0820   30.7300    3.6530 N   0  0  0  0  0  0  0  0  0  0  0  0
   24.6560   30.9450    3.4470 C   0  0  2  0  0  0  0  0  0  0  0  0
   24.3510   32.3910    3.0590 C   0  0  0  0  0  0  0  0  0  0  0  0
   23.4180   32.6510    2.3000 O   0  0  0  0  0  0  0  0  0  0  0  0
   23.8840   30.5580    4.7080 C   0  0  0  0  0  0  0  0  0  0  0  0
   22.3590   30.5880    4.6340 C   0  0  0  0  0  0  0  0  0  0  0  0
   21.8720   29.8390    3.4090 C   0  0  0  0  0  0  0  0  0  0  0  0
   21.7640   29.9880    5.8970 C   0  0  0  0  0  0  0  0  0  0  0  0
   25.1440   33.3240    3.5790 N   0  0  0  0  0  0  0  0  0  0  0  0
   25.0100   34.7330    3.2250 C   0  0  2  0  0  0  0  0  0  0  0  0
   25.2340   34.9560    1.7340 C   0  0  0  0  0  0  0  0  0  0  0  0
   24.4300   35.6020    1.0630 O   0  0  0  0  0  0  0  0  0  0  0  0
   25.9990   35.5910    4.0160 C   0  0  0  0  0  0  0  0  0  0  0  0
   25.7300   35.6280    5.4870 C   0  0  0  0  0  0  0  0  0  0  0  0
   24.5010   35.9660    6.0120 N   0  0  0  0  0  0  0  0  0  0  0  0
   26.5380   35.3870    6.5460 C   0  0  0  0  0  0  0  0  0  0  0  0
   24.5610   35.9210    7.3300 C   0  0  0  0  0  0  0  0  0  0  0  0
   25.7860   35.5720    7.6810 N   0  0  0  0  0  0  0  0  0  0  0  0
   26.3380   34.4180    1.2300 N   0  0  0  0  0  0  0  0  0  0  0  0
   26.7310   34.6040   -0.1600 C   0  0  2  0  0  0  0  0  0  0  0  0
   25.6950   34.0580   -1.1370 C   0  0  0  0  0  0  0  0  0  0  0  0
   25.3610   34.7050   -2.1300 O   0  0  0  0  0  0  0  0  0  0  0  0
   28.0840   33.9390   -0.4140 C   0  0  0  0  0  0  0  0  0  0  0  0
   28.5450   34.0090   -1.8540 C   0  0  0  0  0  0  0  0  0  0  0  0
   29.9610   33.4870   -2.0020 C   0  0  0  0  0  0  0  0  0  0  0  0
   30.0910   32.0780   -1.6380 N   0  0  0  0  0  0  0  0  0  0  0  0
   29.7390   31.0650   -2.4230 C   0  0  0  0  0  0  0  0  0  0  0  0
   29.8990   29.8150   -2.0090 N   0  0  0  0  0  0  0  0  0  0  0  0
   29.2160   31.2980   -3.6190 N   0  0  0  0  0  0  0  0  0  0  0  0
   25.1890   32.8650   -0.8470 N   0  0  0  0  0  0  0  0  0  0  0  0
   24.2450   32.1990   -1.7340 C   0  0  2  0  0  0  0  0  0  0  0  0
   22.8920   32.9070   -1.7480 C   0  0  0  0  0  0  0  0  0  0  0  0
   22.1390   32.8070   -2.7180 O   0  0  0  0  0  0  0  0  0  0  0  0
   24.0800   30.7360   -1.3200 C   0  0  0  0  0  0  0  0  0  0  0  0
   25.4020   29.9740   -1.2030 C   0  0  0  0  0  0  0  0  0  0  0  0
   25.1760   28.5310   -0.7840 C   0  0  0  0  0  0  0  0  0  0  0  0
   26.1680   30.0410   -2.5150 C   0  0  0  0  0  0  0  0  0  0  0  0
   22.5960   33.6260   -0.6680 N   0  0  0  0  0  0  0  0  0  0  0  0
   21.3480   34.3740   -0.5490 C   0  0  2  0  0  0  0  0  0  0  0  0
   21.4330   35.7490   -1.2230 C   0  0  0  0  0  0  0  0  0  0  0  0
   20.4310   36.2660   -1.7220 O   0  0  0  0  0  0  0  0  0  0  0  0
   20.9670   34.5350    0.9250 C   0  0  0  0  0  0  0  0  0  0  0  0
   20.2730   33.3420    1.5840 C   0  0  0  0  0  0  0  0  0  0  0  0
   20.2670   33.4910    3.0960 C   0  0  0  0  0  0  0  0  0  0  0  0
   18.8560   33.2100    1.0570 C   0  0  0  0  0  0  0  0  0  0  0  0
   22.6320   36.3320   -1.2300 N   0  0  0  0  0  0  0  0  0  0  0  0
   22.8740   37.6260   -1.8690 C   0  0  2  0  0  0  0  0  0  0  0  0
   22.8300   37.4930   -3.3910 C   0  0  0  0  0  0  0  0  0  0  0  0
   21.9080   38.0190   -4.0360 O   0  0  0  0  0  0  0  0  0  0  0  0
   24.2230   38.2130   -1.4360 C   0  0  0  0  0  0  0  0  0  0  0  0
   24.2760   38.7390    0.0050 C   0  0  0  0  0  0  0  0  0  0  0  0
   25.5470   39.5210    0.2950 C   0  0  0  0  0  0  0  0  0  0  0  0
   26.2810   39.8880   -0.6220 O   0  0  0  0  0  0  0  0  0  0  0  0
   25.8120   39.7790    1.5710 N   0  0  0  0  0  0  0  0  0  0  0  0
   23.8270   36.7960   -3.9470 N   0  0  0  0  0  0  0  0  0  0  0  0
   23.9100   36.4890   -5.3830 C   0  0  2  0  0  0  0  0  0  0  0  0
   23.4820   37.6370   -6.2710 C   0  0  0  0  0  0  0  0  0  0  0  0
   22.3710   37.6140   -6.8070 O   0  0  0  0  0  0  0  0  0  0  0  0
   23.0610   35.2550   -5.7310 C   0  0  0  0  0  0  0  0  0  0  0  0
  2  1  1  0
  3  2  1  0
  4  3  2  0
  2  5  1  6
  6  3  1  0
  7  6  1  0
  8  7  1  0
  9  8  2  0
  7 10  1  1
 11  8  1  0
 12 11  1  1
 13 12  1  0
 14 13  2  0
 15 12  1  0
 16 15  1  0
 15 17  1  6
 18 16  1  0
 19 13  1  0
 20 19  1  0
 21 20  1  0
 22 21  2  0
 20 23  1  1
 24 23  1  0
 25 24  1  0
 26 24  1  0
 27 21  1  0
 28 27  1  0
 29 28  1  0
 30 29  2  0
 28 31  1  1
 32 31  1  0
 33 32  1  0
 34 32  2  0
 35 33  2  0
 36 35  1  0
 36 34  1  0
 37 29  1  0
 38 37  1  0
 39 38  1  0
 40 39  2  0
 38 41  1  1
 42 41  1  0
 43 42  1  0
 44 43  1  0
 45 44  1  0
 46 45  1  0
 47 45  2  0
 48 39  1  0
 49 48  1  0
 50 49  1  0
 51 50  2  0
 49 52  1  1
 53 52  1  0
 54 53  1  0
 55 53  1  0
 56 50  1  0
 57 56  1  0
 58 57  1  0
 59 58  2  0
 57 60  1  1
 61 60  1  0
 62 61  1  0
 63 61  1  0
 64 58  1  0
 65 64  1  0
 66 65  1  0
 67 66  2  0
 65 68  1  6
 69 68  1  0
 70 69  1  0
 71 70  2  0
 72 70  1  0
 73 66  1  0
 74 73  1  0
 75 74  1  0
 76 75  2  0
 74 77  1  1
M  END
$$$$
5KRM
     RDKit          3D

 72 72  0  0  0  0  0  0  0  0999 V2000
  -10.3950   18.3540   21.8150 N   0  0  0  0  0  0  0  0  0  0  0  0
   -9.8180   17.0150   21.8270 C   0  0  2  0  0  0  0  0  0  0  0  0
   -9.5150   16.5600   23.2500 C   0  0  0  0  0  0  0  0  0  0  0  0
   -8.9810   17.3220   24.0570 O   0  0  0  0  0  0  0  0  0  0  0  0
   -8.5460   16.9700   20.9780 C   0  0  0  0  0  0  0  0  0  0  0  0
   -9.8620   15.3120   23.5480 N   0  0  0  0  0  0  0  0  0  0  0  0
   -9.6280   14.7390   24.8680 C   0  0  2  0  0  0  0  0  0  0  0  0
   -8.1370   14.6250   25.1570 C   0  0  0  0  0  0  0  0  0  0  0  0
   -7.6790   14.9530   26.2530 O   0  0  0  0  0  0  0  0  0  0  0  0
  -10.2750   13.3500   24.9960 C   0  0  2  0  0  0  0  0  0  0  0  0
  -11.7750   13.4390   24.7140 C   0  0  0  0  0  0  0  0  0  0  0  0
  -10.0180   12.7600   26.3770 C   0  0  0  0  0  0  0  0  0  0  0  0
  -12.4910   12.1250   24.8670 C   0  0  0  0  0  0  0  0  0  0  0  0
   -7.3890   14.1620   24.1610 N   0  0  0  0  0  0  0  0  0  0  0  0
   -5.9450   13.9970   24.2860 C   0  0  2  0  0  0  0  0  0  0  0  0
   -5.2650   15.3150   24.6370 C   0  0  0  0  0  0  0  0  0  0  0  0
   -4.4060   15.3640   25.5170 O   0  0  0  0  0  0  0  0  0  0  0  0
   -5.3620   13.4330   22.9900 C   0  0  0  0  0  0  0  0  0  0  0  0
   -3.8430   13.2760   22.9460 C   0  0  0  0  0  0  0  0  0  0  0  0
   -3.3650   12.3900   24.0850 C   0  0  0  0  0  0  0  0  0  0  0  0
   -3.4090   12.7100   21.6050 C   0  0  0  0  0  0  0  0  0  0  0  0
   -5.6610   16.3780   23.9450 N   0  0  0  0  0  0  0  0  0  0  0  0
   -5.1190   17.7110   24.1900 C   0  0  2  0  0  0  0  0  0  0  0  0
   -5.3880   18.1580   25.6250 C   0  0  0  0  0  0  0  0  0  0  0  0
   -4.5190   18.7360   26.2790 O   0  0  0  0  0  0  0  0  0  0  0  0
   -5.7180   18.7150   23.2030 C   0  0  0  0  0  0  0  0  0  0  0  0
   -5.1030   20.0770   23.2780 C   0  0  0  0  0  0  0  0  0  0  0  0
   -5.5220   21.0360   24.1750 N   0  0  0  0  0  0  0  0  0  0  0  0
   -4.1010   20.6430   22.5640 C   0  0  0  0  0  0  0  0  0  0  0  0
   -4.8040   22.1320   24.0120 C   0  0  0  0  0  0  0  0  0  0  0  0
   -3.9340   21.9210   23.0410 N   0  0  0  0  0  0  0  0  0  0  0  0
   -6.5960   17.8800   26.1050 N   0  0  0  0  0  0  0  0  0  0  0  0
   -6.9880   18.2150   27.4710 C   0  0  2  0  0  0  0  0  0  0  0  0
   -6.2190   17.3770   28.4870 C   0  0  0  0  0  0  0  0  0  0  0  0
   -5.7820   17.8820   29.5210 O   0  0  0  0  0  0  0  0  0  0  0  0
   -8.4950   18.0130   27.6570 C   0  0  0  0  0  0  0  0  0  0  0  0
   -8.9930   18.2160   29.0840 C   0  0  0  0  0  0  0  0  0  0  0  0
   -8.9280   19.6790   29.4970 C   0  0  0  0  0  0  0  0  0  0  0  0
   -9.3700   19.8790   30.8750 N   0  0  0  0  0  0  0  0  0  0  0  0
  -10.6210   20.1600   31.2280 C   0  0  0  0  0  0  0  0  0  0  0  0
  -11.5650   20.2780   30.3040 N   0  0  0  0  0  0  0  0  0  0  0  0
  -10.9290   20.3250   32.5070 N   0  0  0  0  0  0  0  0  0  0  0  0
   -6.0550   16.0940   28.1830 N   0  0  0  0  0  0  0  0  0  0  0  0
   -5.3930   15.1640   29.0930 C   0  0  2  0  0  0  0  0  0  0  0  0
   -3.8970   15.4530   29.2290 C   0  0  0  0  0  0  0  0  0  0  0  0
   -3.2930   15.1620   30.2610 O   0  0  0  0  0  0  0  0  0  0  0  0
   -5.6100   13.7210   28.6250 C   0  0  0  0  0  0  0  0  0  0  0  0
   -6.7500   12.9390   29.2870 C   0  0  0  0  0  0  0  0  0  0  0  0
   -8.0320   13.7580   29.3470 C   0  0  0  0  0  0  0  0  0  0  0  0
   -6.9930   11.6260   28.5590 C   0  0  0  0  0  0  0  0  0  0  0  0
   -3.3050   16.0370   28.1930 N   0  0  0  0  0  0  0  0  0  0  0  0
   -1.8780   16.3460   28.2040 C   0  0  2  0  0  0  0  0  0  0  0  0
   -1.5500   17.5750   29.0540 C   0  0  0  0  0  0  0  0  0  0  0  0
   -0.4260   18.0740   29.0230 O   0  0  0  0  0  0  0  0  0  0  0  0
   -1.3710   16.5500   26.7740 C   0  0  0  0  0  0  0  0  0  0  0  0
   -1.0740   15.2750   25.9800 C   0  0  0  0  0  0  0  0  0  0  0  0
   -0.9340   15.5800   24.5010 C   0  0  0  0  0  0  0  0  0  0  0  0
    0.1890   14.6090   26.5050 C   0  0  0  0  0  0  0  0  0  0  0  0
   -2.5260   18.0530   29.8200 N   0  0  0  0  0  0  0  0  0  0  0  0
   -2.3250   19.2270   30.6630 C   0  0  2  0  0  0  0  0  0  0  0  0
   -2.4880   18.9060   32.1520 C   0  0  0  0  0  0  0  0  0  0  0  0
   -3.5230   18.3800   32.5640 O   0  0  0  0  0  0  0  0  0  0  0  0
   -3.2950   20.3400   30.2580 C   0  0  0  0  0  0  0  0  0  0  0  0
   -3.2770   20.6600   28.7670 C   0  0  0  0  0  0  0  0  0  0  0  0
   -4.1030   21.8840   28.4170 C   0  0  0  0  0  0  0  0  0  0  0  0
   -4.1050   22.8770   29.1460 O   0  0  0  0  0  0  0  0  0  0  0  0
   -4.8120   21.8170   27.2960 N   0  0  0  0  0  0  0  0  0  0  0  0
   -1.4510   19.2240   32.9310 N   0  0  0  0  0  0  0  0  0  0  0  0
   -1.4270   19.0990   34.3960 C   0  0  2  0  0  0  0  0  0  0  0  0
   -2.2550   17.9390   34.9530 C   0  0  0  0  0  0  0  0  0  0  0  0
   -1.7200   17.0050   35.5500 O   0  0  0  0  0  0  0  0  0  0  0  0
   -1.8950   20.4100   35.0360 C   0  0  0  0  0  0  0  0  0  0  0  0
  2  1  1  0
  3  2  1  0
  4  3  2  0
  2  5  1  6
  6  3  1  0
  7  6  1  6
  8  7  1  0
  9  8  2  0
 10  7  1  0
 11 10  1  0
 10 12  1  1
 13 11  1  0
 14  8  1  0
 15 14  1  0
 16 15  1  0
 17 16  2  0
 15 18  1  6
 19 18  1  0
 20 19  1  0
 21 19  1  0
 22 16  1  0
 23 22  1  0
 24 23  1  0
 25 24  2  0
 23 26  1  6
 27 26  1  0
 28 27  1  0
 29 27  2  0
 30 28  2  0
 31 29  1  0
 31 30  1  0
 32 24  1  0
 33 32  1  0
 34 33  1  0
 35 34  2  0
 33 36  1  6
 37 36  1  0
 38 37  1  0
 39 38  1  0
 40 39  1  0
 41 40  1  0
 42 40  2  0
 43 34  1  0
 44 43  1  0
 45 44  1  0
 46 45  2  0
 44 47  1  6
 48 47  1  0
 49 48  1  0
 50 48  1  0
 51 45  1  0
 52 51  1  0
 53 52  1  0
 54 53  2  0
 52 55  1  6
 56 55  1  0
 57 56  1  0
 58 56  1  0
 59 53  1  0
 60 59  1  0
 61 60  1  0
 62 61  2  0
 60 63  1  6
 64 63  1  0
 65 64  1  0
 66 65  2  0
 67 65  1  0
 68 61  1  0
 69 68  1  0
 70 69  1  0
 71 70  2  0
 69 72  1  1
M  END
$$$$
8C4F
     RDKit          3D

 71 72  0  0  0  0  0  0  0  0999 V2000
   12.6730    7.8940   14.7360 N   0  0  0  0  0  0  0  0  0  0  0  0
   13.5750    9.0490   14.7080 C   0  0  2  0  0  0  0  0  0  0  0  0
   12.8990   10.2690   14.0900 C   0  0  0  0  0  0  0  0  0  0  0  0
   12.0160   10.1380   13.2410 O   0  0  0  0  0  0  0  0  0  0  0  0
   14.8810    8.7070   13.9690 C   0  0  0  0  0  0  0  0  0  0  0  0
   14.6820    8.1200   12.5950 C   0  0  0  0  0  0  0  0  0  0  0  0
   14.6560    8.9340   11.4720 C   0  0  0  0  0  0  0  0  0  0  0  0
   14.5450    6.7480   12.4210 C   0  0  0  0  0  0  0  0  0  0  0  0
   14.4690    8.3950   10.2100 C   0  0  0  0  0  0  0  0  0  0  0  0
   14.3560    6.2080   11.1560 C   0  0  0  0  0  0  0  0  0  0  0  0
   14.3290    7.0300   10.0550 C   0  0  0  0  0  0  0  0  0  0  0  0
   13.8120    9.2830   15.6190 H   0  0  0  0  0  0  0  0  0  0  0  0
   15.4010    9.5190   13.8680 H   0  0  0  0  0  0  0  0  0  0  0  0
   15.3740    8.0590   14.4960 H   0  0  0  0  0  0  0  0  0  0  0  0
   14.7660    9.8520   11.5680 H   0  0  0  0  0  0  0  0  0  0  0  0
   14.5810    6.1850   13.1600 H   0  0  0  0  0  0  0  0  0  0  0  0
   14.4390    8.9530    9.4670 H   0  0  0  0  0  0  0  0  0  0  0  0
   14.2470    5.2900   11.0540 H   0  0  0  0  0  0  0  0  0  0  0  0
   14.2170    6.6680    9.2060 H   0  0  0  0  0  0  0  0  0  0  0  0
   13.2950   11.4630   14.5210 N   0  0  0  0  0  0  0  0  0  0  0  0
   12.7080   12.6760   13.9450 C   0  0  2  0  0  0  0  0  0  0  0  0
   13.3040   13.0040   12.5780 C   0  0  0  0  0  0  0  0  0  0  0  0
   14.3570   12.5150   12.1730 O   0  0  0  0  0  0  0  0  0  0  0  0
   13.0590   13.7510   14.9760 C   0  0  0  0  0  0  0  0  0  0  0  0
   14.3850   13.2690   15.5480 C   0  0  0  0  0  0  0  0  0  0  0  0
   14.2750   11.7720   15.5840 C   0  0  0  0  0  0  0  0  0  0  0  0
   11.7450   12.5980   13.8660 H   0  0  0  0  0  0  0  0  0  0  0  0
   13.1530   14.6150   14.5440 H   0  0  0  0  0  0  0  0  0  0  0  0
   12.3740   13.7970   15.6620 H   0  0  0  0  0  0  0  0  0  0  0  0
   15.1140   13.5490   14.9730 H   0  0  0  0  0  0  0  0  0  0  0  0
   14.5090   13.6280   16.4410 H   0  0  0  0  0  0  0  0  0  0  0  0
   15.1310   11.3600   15.3910 H   0  0  0  0  0  0  0  0  0  0  0  0
   13.9500   11.4720   16.4470 H   0  0  0  0  0  0  0  0  0  0  0  0
   12.5690   13.8220   11.8370 N   0  0  0  0  0  0  0  0  0  0  0  0
   12.9650   14.1930   10.5010 C   0  0  2  0  0  0  0  0  0  0  0  0
   14.0680   15.2400   10.4670 C   0  0  0  0  0  0  0  0  0  0  0  0
   14.0180   16.2260   11.1950 O   0  0  0  0  0  0  0  0  0  0  0  0
   11.7770   14.7280    9.7380 C   0  0  0  0  0  0  0  0  0  0  0  0
   11.8280   14.1750   12.0940 H   0  0  0  0  0  0  0  0  0  0  0  0
   13.3070   13.3900   10.0780 H   0  0  0  0  0  0  0  0  0  0  0  0
   12.0610   14.9720    8.8430 H   0  0  0  0  0  0  0  0  0  0  0  0
   11.0950   14.0400    9.6930 H   0  0  0  0  0  0  0  0  0  0  0  0
   11.4310   15.5080   10.2000 H   0  0  0  0  0  0  0  0  0  0  0  0
   15.0740   14.9810    9.6290 N   0  0  0  0  0  0  0  0  0  0  0  0
   16.1350   15.9440    9.2980 C   0  0  1  0  0  0  0  0  0  0  0  0
   17.4730   15.6160   10.0370 C   0  0  1  0  0  0  0  0  0  0  0  0
   17.3380   15.7890   11.5470 C   0  0  0  0  0  0  0  0  0  0  0  0
   17.7690   14.2550    9.6920 O   0  0  0  0  0  0  0  0  0  0  0  0
   19.1950   13.6210   10.0790 P   0  0  0  0  0  0  0  0  0  0  0  0
   19.2600   12.3380    9.1300 O   0  0  0  0  0  0  0  0  0  0  0  0
   19.1780   13.2470   11.5030 O   0  0  0  0  0  0  0  0  0  0  0  0
   20.3170   14.6640    9.7550 O   0  0  0  0  0  0  0  0  0  0  0  0
   16.3520   15.9160    7.7900 C   0  0  0  0  0  0  0  0  0  0  0  0
   15.9660   14.9340    7.1140 O   0  0  0  0  0  0  0  0  0  0  0  0
   16.9570   16.9670    7.2410 N   0  0  0  0  0  0  0  0  0  0  0  0
   17.2280   17.0070    5.8100 C   0  0  2  0  0  0  0  0  0  0  0  0
   18.6790   17.3150    5.5040 C   0  0  0  0  0  0  0  0  0  0  0  0
   19.4720   17.7510    6.3620 O   0  0  0  0  0  0  0  0  0  0  0  0
   16.3390   18.0230    5.0800 C   0  0  0  0  0  0  0  0  0  0  0  0
   14.9030   17.6420    5.2260 C   0  0  0  0  0  0  0  0  0  0  0  0
   16.6120   19.4530    5.5930 C   0  0  0  0  0  0  0  0  0  0  0  0
   19.0760   17.1060    4.3380 O   0  0  0  0  0  0  0  0  0  0  0  0
   17.2170   17.6630    7.6750 H   0  0  0  0  0  0  0  0  0  0  0  0
   17.0310   16.1170    5.4790 H   0  0  0  0  0  0  0  0  0  0  0  0
   16.5490   18.0180    4.1330 H   0  0  0  0  0  0  0  0  0  0  0  0
   14.3560   18.2820    4.7440 H   0  0  0  0  0  0  0  0  0  0  0  0
   14.7730   16.7540    4.8590 H   0  0  0  0  0  0  0  0  0  0  0  0
   14.6690   17.6490    6.1670 H   0  0  0  0  0  0  0  0  0  0  0  0
   15.9510   20.0550    5.2160 H   0  0  0  0  0  0  0  0  0  0  0  0
   16.5510   19.4590    6.5610 H   0  0  0  0  0  0  0  0  0  0  0  0
   17.5010   19.7240    5.3160 H   0  0  0  0  0  0  0  0  0  0  0  0
  2  1  1  0
  3  2  1  0
  4  3  2  0
  5  2  1  0
  6  5  1  0
  7  6  2  0
  8  6  1  0
  9  7  1  0
 10  8  2  0
 11  9  2  0
 11 10  1  0
  2 12  1  1
 13  5  1  0
 14  5  1  0
 15  7  1  0
 16  8  1  0
 17  9  1  0
 18 10  1  0
 19 11  1  0
 20  3  1  0
 21 20  1  0
 22 21  1  0
 23 22  2  0
 24 21  1  0
 25 24  1  0
 26 25  1  0
 26 20  1  0
 21 27  1  6
 28 24  1  0
 29 24  1  0
 30 25  1  0
 31 25  1  0
 32 26  1  0
 33 26  1  0
 34 22  1  0
 35 34  1  0
 36 35  1  0
 37 36  2  0
 38 35  1  0
 39 34  1  0
 35 40  1  6
 41 38  1  0
 42 38  1  0
 43 38  1  0
 44 36  1  0
 45 44  1  6
 46 45  1  0
 46 47  1  1
 48 46  1  0
 49 48  1  0
 50 49  1  0
 51 49  1  0
 52 49  1  0
 53 45  1  0
 54 53  1  0
 55 53  1  0
 56 55  1  0
 57 56  1  0
 58 57  2  0
 59 56  1  0
 60 59  1  0
 61 59  1  0
 62 57  1  0
 63 55  1  0
 56 64  1  6
 65 59  1  0
 66 60  1  0
 67 60  1  0
 68 60  1  0
 69 61  1  0
 70 61  1  0
 71 61  1  0
M  END
$$$$
5DZI
     RDKit          3D

 24 26  0  0  0  0  0  0  0  0999 V2000
  -17.4470   -1.6600   49.5330 O   0  0  0  0  0  0  0  0  0  0  0  0
  -16.0670   -2.0140   49.6080 C   0  0  0  0  0  0  0  0  0  0  0  0
  -15.7420   -3.3300   49.5870 C   0  0  0  0  0  0  0  0  0  0  0  0
  -14.3940   -3.7310   49.6730 C   0  0  0  0  0  0  0  0  0  0  0  0
  -13.3960   -2.8030   49.7890 C   0  0  0  0  0  0  0  0  0  0  0  0
  -11.9490   -3.2630   49.9280 C   0  0  2  0  0  0  0  0  0  0  0  0
  -11.2750   -2.8430   51.2090 C   0  0  0  0  0  0  0  0  0  0  0  0
  -12.0090   -2.7950   52.3730 C   0  0  0  0  0  0  0  0  0  0  0  0
  -11.4140   -2.3990   53.5690 C   0  0  0  0  0  0  0  0  0  0  0  0
  -10.1120   -2.0200   53.5630 C   0  0  0  0  0  0  0  0  0  0  0  0
   -9.4670   -1.6180   54.7100 O   0  0  0  0  0  0  0  0  0  0  0  0
   -9.3920   -2.0560   52.3970 C   0  0  0  0  0  0  0  0  0  0  0  0
   -9.9840   -2.4790   51.2220 C   0  0  0  0  0  0  0  0  0  0  0  0
  -11.3080   -3.8950   48.9230 C   0  0  1  0  0  0  0  0  0  0  0  0
  -10.0610   -4.6760   49.1260 C   0  0  0  0  0  0  0  0  0  0  0  0
  -10.2090   -6.1400   48.7910 C   0  0  0  0  0  0  0  0  0  0  0  0
  -10.7820   -6.3630   47.4210 C   0  0  0  0  0  0  0  0  0  0  0  0
  -12.0720   -5.6120   47.3290 C   0  0  2  0  0  0  0  0  0  0  0  0
  -12.6930   -5.8650   45.9430 C   0  0  0  0  0  0  0  0  0  0  0  0
  -13.9200   -4.9680   45.7000 C   0  0  0  0  0  0  0  0  0  0  0  0
  -15.0210   -5.6730   46.1290 O   0  0  0  0  0  0  0  0  0  0  0  0
  -11.9700   -4.1330   47.6110 C   0  0  0  0  0  0  0  0  0  0  0  0
  -13.7230   -1.4890   49.8310 C   0  0  0  0  0  0  0  0  0  0  0  0
  -15.0810   -1.0800   49.7300 C   0  0  0  0  0  0  0  0  0  0  0  0
  2  1  1  0
  3  2  1  0
  4  3  1  0
  5  4  1  0
  6  5  1  6
  7  6  1  0
  8  7  1  0
  9  8  1  0
 10  9  1  0
 11 10  1  0
 12 10  1  0
 13  7  1  0
 13 12  1  0
 14  6  1  0
 14 15  1  1
 16 15  1  0
 17 16  1  0
 18 17  1  0
 18 19  1  6
 20 19  1  0
 21 20  1  0
 22 18  1  0
 22 14  1  0
 23  5  1  0
 24 23  1  0
 24  2  1  0
M  END
$$$$
8AZE
     RDKit          3D

 42 43  0  0  0  0  0  0  0  0999 V2000
  -12.1840   -8.3410   15.3810 N   0  0  0  0  0  0  0  0  0  0  0  0
  -13.3060   -9.2440   14.9700 C   0  0  2  0  0  0  0  0  0  0  0  0
  -12.7920  -10.4460   14.1800 C   0  0  0  0  0  0  0  0  0  0  0  0
  -11.9640  -10.3090   13.2860 O   0  0  0  0  0  0  0  0  0  0  0  0
  -14.3710   -8.4880   14.1590 C   0  0  0  0  0  0  0  0  0  0  0  0
  -15.2830   -7.6340   15.0060 C   0  0  0  0  0  0  0  0  0  0  0  0
  -16.0930   -8.2160   15.9800 C   0  0  0  0  0  0  0  0  0  0  0  0
  -15.3460   -6.2510   14.8260 C   0  0  0  0  0  0  0  0  0  0  0  0
  -16.9360   -7.4370   16.7620 C   0  0  0  0  0  0  0  0  0  0  0  0
  -16.1960   -5.4680   15.6020 C   0  0  0  0  0  0  0  0  0  0  0  0
  -16.9870   -6.0620   16.5750 C   0  0  0  0  0  0  0  0  0  0  0  0
  -13.2700  -11.6700   14.4890 N   0  0  0  0  0  0  0  0  0  0  0  0
  -12.7640  -12.8800   13.8360 C   0  0  2  0  0  0  0  0  0  0  0  0
  -13.3670  -13.1540   12.4480 C   0  0  0  0  0  0  0  0  0  0  0  0
  -14.4420  -12.6770   12.1280 O   0  0  0  0  0  0  0  0  0  0  0  0
  -13.1730  -13.9560   14.8470 C   0  0  0  0  0  0  0  0  0  0  0  0
  -14.5000  -13.4540   15.3680 C   0  0  0  0  0  0  0  0  0  0  0  0
  -14.2900  -11.9590   15.5110 C   0  0  0  0  0  0  0  0  0  0  0  0
  -12.6570  -13.9470   11.6390 N   0  0  0  0  0  0  0  0  0  0  0  0
  -13.0810  -14.2380   10.3000 C   0  0  2  0  0  0  0  0  0  0  0  0
  -14.1890  -15.3050   10.2790 C   0  0  0  0  0  0  0  0  0  0  0  0
  -14.1280  -16.3040   11.0120 O   0  0  0  0  0  0  0  0  0  0  0  0
  -11.9100  -14.7380    9.4570 C   0  0  0  0  0  0  0  0  0  0  0  0
  -15.1890  -15.0650    9.4380 N   0  0  0  0  0  0  0  0  0  0  0  0
  -16.2610  -16.0110    9.0680 C   0  0  1  0  0  0  0  0  0  0  0  0
  -17.5700  -15.7030    9.8080 C   0  0  1  0  0  0  0  0  0  0  0  0
  -17.4510  -15.9040   11.3010 C   0  0  0  0  0  0  0  0  0  0  0  0
  -17.8670  -14.2950    9.5430 O   0  0  0  0  0  0  0  0  0  0  0  0
  -19.3160  -13.6740    9.8810 P   0  0  0  0  0  0  0  0  0  0  0  0
  -19.3160  -12.4190    8.9620 O   0  0  0  0  0  0  0  0  0  0  0  0
  -19.2810  -13.3430   11.3500 O   0  0  0  0  0  0  0  0  0  0  0  0
  -20.3480  -14.6620    9.5270 O   0  0  0  0  0  0  0  0  0  0  0  0
  -16.4770  -15.9880    7.5590 C   0  0  0  0  0  0  0  0  0  0  0  0
  -16.0900  -14.9850    6.8960 O   0  0  0  0  0  0  0  0  0  0  0  0
  -17.0710  -17.0550    7.0430 N   0  0  0  0  0  0  0  0  0  0  0  0
  -17.3820  -17.1640    5.6150 C   0  0  2  0  0  0  0  0  0  0  0  0
  -18.8270  -17.4850    5.3270 C   0  0  0  0  0  0  0  0  0  0  0  0
  -19.6190  -17.9060    6.1870 O   0  0  0  0  0  0  0  0  0  0  0  0
  -16.4960  -18.2160    4.8920 C   0  0  0  0  0  0  0  0  0  0  0  0
  -15.0410  -17.8030    4.9950 C   0  0  0  0  0  0  0  0  0  0  0  0
  -16.7370  -19.6020    5.4660 C   0  0  0  0  0  0  0  0  0  0  0  0
  -19.2460  -17.3650    4.1580 O   0  0  0  0  0  0  0  0  0  0  0  0
  2  1  1  6
  3  2  1  0
  4  3  2  0
  5  2  1  0
  6  5  1  0
  7  6  2  0
  8  6  1  0
  9  7  1  0
 10  8  2  0
 11  9  2  0
 11 10  1  0
 12  3  1  0
 13 12  1  0
 13 14  1  6
 15 14  2  0
 16 13  1  0
 17 16  1  0
 18 17  1  0
 18 12  1  0
 19 14  1  0
 20 19  1  0
 21 20  1  0
 22 21  2  0
 20 23  1  6
 24 21  1  0
 25 24  1  6
 26 25  1  0
 26 27  1  1
 28 26  1  0
 29 28  1  0
 30 29  1  0
 31 29  1  0
 32 29  1  0
 33 25  1  0
 34 33  1  0
 35 33  1  0
 36 35  1  1
 37 36  1  0
 38 37  2  0
 39 36  1  0
 40 39  1  0
 41 39  1  0
 42 37  1  0
M  END
$$$$
5AK2
     RDKit          3D

 42 41  0  0  0  0  0  0  0  0999 V2000
   59.1630   -9.1870    5.5410 N   0  0  0  0  0  0  0  0  0  0  0  0
   57.8530   -9.7840    5.8080 C   0  0  2  0  0  0  0  0  0  0  0  0
   57.5550  -10.8680    4.8020 C   0  0  0  0  0  0  0  0  0  0  0  0
   57.6560  -12.0340    5.1240 O   0  0  0  0  0  0  0  0  0  0  0  0
   56.7510   -8.7290    5.7830 C   0  0  0  0  0  0  0  0  0  0  0  0
   56.4650   -8.1060    7.1450 C   0  0  0  0  0  0  0  0  0  0  0  0
   55.9680   -6.6830    6.9940 C   0  0  0  0  0  0  0  0  0  0  0  0
   55.4650   -8.9450    7.9220 C   0  0  0  0  0  0  0  0  0  0  0  0
   57.2230  -10.4680    3.5760 N   0  0  0  0  0  0  0  0  0  0  0  0
   57.0370  -11.3970    2.4600 C   0  0  2  0  0  0  0  0  0  0  0  0
   58.1340  -12.4620    2.3870 C   0  0  0  0  0  0  0  0  0  0  0  0
   57.8480  -13.6230    2.1300 O   0  0  0  0  0  0  0  0  0  0  0  0
   56.9900  -10.6230    1.1410 C   0  0  0  0  0  0  0  0  0  0  0  0
   59.3820  -12.0520    2.6200 N   0  0  0  0  0  0  0  0  0  0  0  0
   60.5140  -12.9850    2.7230 C   0  0  2  0  0  0  0  0  0  0  0  0
   60.5150  -13.8420    4.0080 C   0  0  0  0  0  0  0  0  0  0  0  0
   60.3540  -15.0700    3.9320 O   0  0  0  0  0  0  0  0  0  0  0  0
   61.8370  -12.2240    2.5830 C   0  0  0  0  0  0  0  0  0  0  0  0
   60.6530  -13.1970    5.1730 N   0  0  0  0  0  0  0  0  0  0  0  0
   60.8040  -13.9310    6.4360 C   0  0  2  0  0  0  0  0  0  0  0  0
   59.5420  -14.7180    6.7320 C   0  0  0  0  0  0  0  0  0  0  0  0
   59.6050  -15.6760    7.4840 O   0  0  0  0  0  0  0  0  0  0  0  0
   61.1410  -13.0140    7.6240 C   0  0  0  0  0  0  0  0  0  0  0  0
   62.3700  -12.1270    7.4450 C   0  0  0  0  0  0  0  0  0  0  0  0
   63.9690  -12.9660    7.3870 S   0  0  0  0  0  0  0  0  0  0  0  0
   64.8020  -12.0610    6.0780 C   0  0  0  0  0  0  0  0  0  0  0  0
   58.4230  -14.3310    6.1090 N   0  0  0  0  0  0  0  0  0  0  0  0
   57.1380  -14.9900    6.3100 C   0  0  2  0  0  0  0  0  0  0  0  0
   56.9380  -16.1150    5.3370 C   0  0  0  0  0  0  0  0  0  0  0  0
   56.4810  -17.1830    5.7170 O   0  0  0  0  0  0  0  0  0  0  0  0
   55.9630  -14.0130    6.1850 C   0  0  0  0  0  0  0  0  0  0  0  0
   55.4430  -13.3830    7.4600 C   0  0  0  0  0  0  0  0  0  0  0  0
   54.3220  -12.4300    7.0970 C   0  0  0  0  0  0  0  0  0  0  0  0
   54.9500  -14.4550    8.4130 C   0  0  0  0  0  0  0  0  0  0  0  0
   57.2520  -15.8650    4.0740 N   0  0  0  0  0  0  0  0  0  0  0  0
   57.1490  -16.9020    3.0640 C   0  0  2  0  0  0  0  0  0  0  0  0
   58.3850  -17.7840    3.1730 C   0  0  0  0  0  0  0  0  0  0  0  0
   58.3140  -18.9990    2.8620 O   0  0  0  0  0  0  0  0  0  0  0  0
   57.0500  -16.3000    1.6630 C   0  0  0  0  0  0  0  0  0  0  0  0
   56.9290  -17.3520    0.5830 C   0  0  0  0  0  0  0  0  0  0  0  0
   56.0980  -18.2710    0.7270 O   0  0  0  0  0  0  0  0  0  0  0  0
   57.6750  -17.2640   -0.4150 O   0  0  0  0  0  0  0  0  0  0  0  0
  2  1  1  6
  3  2  1  0
  4  3  2  0
  5  2  1  0
  6  5  1  0
  7  6  1  0
  8  6  1  0
  9  3  1  0
 10  9  1  0
 11 10  1  0
 12 11  2  0
 10 13  1  6
 14 11  1  0
 15 14  1  0
 16 15  1  0
 17 16  2  0
 15 18  1  1
 19 16  1  0
 20 19  1  0
 21 20  1  0
 22 21  2  0
 20 23  1  1
 24 23  1  0
 25 24  1  0
 26 25  1  0
 27 21  1  0
 28 27  1  0
 29 28  1  0
 30 29  2  0
 28 31  1  6
 32 31  1  0
 33 32  1  0
 34 32  1  0
 35 29  1  0
 36 35  1  0
 37 36  1  0
 38 37  2  0
 36 39  1  6
 40 39  1  0
 41 40  2  0
 42 40  1  0
M  END
$$$$
7RS8
     RDKit          3D

 46 51  0  0  0  0  0  0  0  0999 V2000
    2.0780  -10.9690  -21.6920 C   0  0  0  0  0  0  0  0  0  0  0  0
   -6.8630   -9.6120  -21.8920 C   0  0  0  0  0  0  0  0  0  0  0  0
   -0.9220   -8.9480  -21.2840 C   0  0  2  0  0  0  0  0  0  0  0  0
   -2.1360  -10.3550  -18.2260 C   0  0  0  0  0  0  0  0  0  0  0  0
   -1.9020  -10.8220  -16.9910 C   0  0  0  0  0  0  0  0  0  0  0  0
   -6.2760  -10.7940  -22.1340 C   0  0  0  0  0  0  0  0  0  0  0  0
   -1.2460   -9.5400  -18.8510 C   0  0  1  0  0  0  0  0  0  0  0  0
   -8.6960  -10.8980  -21.0720 C   0  0  0  0  0  0  0  0  0  0  0  0
   -3.7270   -8.5260  -21.0070 C   0  0  2  0  0  0  0  0  0  0  0  0
   -6.8600  -11.9710  -21.8650 C   0  0  0  0  0  0  0  0  0  0  0  0
   -1.5320   -9.0370  -20.0680 C   0  0  1  0  0  0  0  0  0  0  0  0
   -2.6350   -7.9650  -20.0990 C   0  0  1  0  0  0  0  0  0  0  0  0
    0.8370   -8.9200  -22.8780 C   0  0  0  0  0  0  0  0  0  0  0  0
   -6.5030   -9.8240  -24.8940 F   0  0  0  0  0  0  0  0  0  0  0  0
    2.0020   -9.3850  -23.3510 C   0  0  0  0  0  0  0  0  0  0  0  0
   -9.4210  -13.6350  -20.0120 C   0  0  0  0  0  0  0  0  0  0  0  0
   -6.5040   -7.8760  -23.5200 C   0  0  0  0  0  0  0  0  0  0  0  0
   -6.3190   -8.4680  -22.1310 N   0  0  0  0  0  0  0  0  0  0  0  0
    3.6900  -10.1510  -11.4420 C   0  0  0  0  0  0  0  0  0  0  0  0
   -5.9470   -8.6490  -24.6850 C   0  0  2  0  0  0  0  0  0  0  0  0
   -8.0860  -12.0800  -21.3250 C   0  0  0  0  0  0  0  0  0  0  0  0
    0.2370   -9.4490  -21.7700 C   0  0  0  0  0  0  0  0  0  0  0  0
   -8.1020   -9.7110  -21.3460 C   0  0  0  0  0  0  0  0  0  0  0  0
   -6.0680   -7.9930  -25.7970 F   0  0  0  0  0  0  0  0  0  0  0  0
   -8.5640  -13.3600  -21.1000 O   0  0  0  0  0  0  0  0  0  0  0  0
   -1.6830   -7.7770  -21.9480 C   0  0  1  0  0  0  0  0  0  0  0  0
   -0.7800  -10.4920  -16.3100 C   0  0  0  0  0  0  0  0  0  0  0  0
    3.3690  -10.3810   -9.9560 C   0  0  0  0  0  0  0  0  0  0  0  0
   -5.2810   -6.3690  -21.5280 O   0  0  0  0  0  0  0  0  0  0  0  0
   -3.0160   -8.3900  -22.3760 C   0  0  0  0  0  0  0  0  0  0  0  0
    2.6340  -10.4250  -22.7870 C   0  0  0  0  0  0  0  0  0  0  0  0
    0.2290  -10.9750  -12.8360 C   0  0  0  0  0  0  0  0  0  0  0  0
    1.4700  -11.0370  -12.0690 N   0  0  0  0  0  0  0  0  0  0  0  0
    2.4190   -9.9400  -12.2880 C   0  0  0  0  0  0  0  0  0  0  0  0
   -0.6210  -11.0190  -15.0600 O   0  0  0  0  0  0  0  0  0  0  0  0
   -4.6860   -8.9020  -24.5760 F   0  0  0  0  0  0  0  0  0  0  0  0
    0.4600  -10.6000  -14.2940 C   0  0  0  0  0  0  0  0  0  0  0  0
   -2.0870   -6.9350  -20.8870 O   0  0  0  0  0  0  0  0  0  0  0  0
   -5.3020   -7.7190  -20.9620 S   0  0  2  0  0  0  0  0  0  0  0  0
    0.9010  -10.4970  -21.2090 C   0  0  0  0  0  0  0  0  0  0  0  0
    0.1020   -9.6790  -16.9450 C   0  0  0  0  0  0  0  0  0  0  0  0
    2.3670  -11.5250   -9.8400 C   0  0  0  0  0  0  0  0  0  0  0  0
    3.8080  -10.8560  -23.2770 O   0  0  0  0  0  0  0  0  0  0  0  0
    1.1360  -11.1500  -10.6560 C   0  0  0  0  0  0  0  0  0  0  0  0
   -0.1300   -9.2100  -18.1730 C   0  0  0  0  0  0  0  0  0  0  0  0
   -6.0430   -8.0180  -19.7210 O   0  0  0  0  0  0  0  0  0  0  0  0
  5  4  1  0
  6  2  1  0
  7  4  1  1
 10  6  1  0
 11  7  1  1
 11  3  1  0
 12 11  1  0
 12  9  1  0
 15 13  1  0
 18 17  1  0
 18  2  1  0
 20 17  1  0
 20 14  1  6
 21 10  1  0
 21  8  1  0
 22 13  1  0
  3 22  1  1
 23  2  1  0
 23  8  1  0
 24 20  1  0
 25 21  1  0
 25 16  1  0
 26  3  1  0
 27  5  1  0
 28 19  1  0
 26 30  1  1
  9 30  1  6
 31  1  1  0
 31 15  1  0
 33 32  1  0
 34 33  1  0
 34 19  1  0
 35 27  1  0
 36 20  1  0
 37 35  1  0
 37 32  1  0
 38 26  1  0
 12 38  1  6
 39 18  1  0
 39 29  1  6
 39  9  1  0
 40  1  1  0
 40 22  1  0
 41 27  1  0
 42 28  1  0
 43 31  1  0
 44 33  1  0
 44 42  1  0
 45 41  1  0
 45  7  1  0
 46 39  1  0
M  END
$$$$
7BA6
     RDKit          3D

 46 47  0  0  0  0  0  0  0  0999 V2000
   10.8970    5.6340   15.8380 N   0  0  0  0  0  0  0  0  0  0  0  0
   10.2860    6.9500   15.7230 C   0  0  0  0  0  0  0  0  0  0  0  0
   11.3160    8.0660   15.7490 C   0  0  0  0  0  0  0  0  0  0  0  0
   11.3410    8.8920   16.6760 O   0  0  0  0  0  0  0  0  0  0  0  0
   12.2230    8.0790   14.6740 N   0  0  0  0  0  0  0  0  0  0  0  0
   13.3200    9.0220   14.5000 C   0  0  2  0  0  0  0  0  0  0  0  0
   12.8480   10.2680   13.7640 C   0  0  0  0  0  0  0  0  0  0  0  0
   12.0340   10.1860   12.8360 O   0  0  0  0  0  0  0  0  0  0  0  0
   14.4500    8.3770   13.7150 C   0  0  0  0  0  0  0  0  0  0  0  0
   15.1030    7.2570   14.4490 C   0  0  0  0  0  0  0  0  0  0  0  0
   16.0700    7.5160   15.4150 C   0  0  0  0  0  0  0  0  0  0  0  0
   14.7490    5.9390   14.1910 C   0  0  0  0  0  0  0  0  0  0  0  0
   16.6900    6.4700   16.0980 C   0  0  0  0  0  0  0  0  0  0  0  0
   15.3630    4.8900   14.8640 C   0  0  0  0  0  0  0  0  0  0  0  0
   16.3310    5.1530   15.8200 C   0  0  0  0  0  0  0  0  0  0  0  0
   13.3330   11.4310   14.1650 N   0  0  0  0  0  0  0  0  0  0  0  0
   12.7820   12.6710   13.6160 C   0  0  2  0  0  0  0  0  0  0  0  0
   13.4000   13.0090   12.2720 C   0  0  0  0  0  0  0  0  0  0  0  0
   14.4680   12.5490   11.8930 O   0  0  0  0  0  0  0  0  0  0  0  0
   13.1270   13.7040   14.6860 C   0  0  0  0  0  0  0  0  0  0  0  0
   14.4290   13.2240   15.2540 C   0  0  0  0  0  0  0  0  0  0  0  0
   14.3370   11.7000   15.2170 C   0  0  0  0  0  0  0  0  0  0  0  0
   12.6770   13.8350   11.5290 N   0  0  0  0  0  0  0  0  0  0  0  0
   13.0440   14.2160   10.2050 C   0  0  2  0  0  0  0  0  0  0  0  0
   14.1680   15.2560   10.2200 C   0  0  0  0  0  0  0  0  0  0  0  0
   14.1210   16.2130   11.0050 O   0  0  0  0  0  0  0  0  0  0  0  0
   11.8460   14.8020    9.4670 C   0  0  0  0  0  0  0  0  0  0  0  0
   15.1710   15.0560    9.3610 N   0  0  0  0  0  0  0  0  0  0  0  0
   16.2360   15.9990    9.0950 C   0  0  1  0  0  0  0  0  0  0  0  0
   17.5570   15.6590    9.8800 C   0  0  1  0  0  0  0  0  0  0  0  0
   17.3690   15.8120   11.3930 C   0  0  0  0  0  0  0  0  0  0  0  0
   17.8530   14.2990    9.4620 O   0  0  0  0  0  0  0  0  0  0  0  0
   19.2770   13.6390    9.8750 P   0  0  0  0  0  0  0  0  0  0  0  0
   19.2830   12.3840    8.8900 O   0  0  0  0  0  0  0  0  0  0  0  0
   19.2520   13.2530   11.2910 O   0  0  0  0  0  0  0  0  0  0  0  0
   20.3300   14.6260    9.5230 O   0  0  0  0  0  0  0  0  0  0  0  0
   16.4700   16.0190    7.5940 C   0  0  0  0  0  0  0  0  0  0  0  0
   16.1110   15.0300    6.8770 O   0  0  0  0  0  0  0  0  0  0  0  0
   16.9980   17.1190    7.0870 N   0  0  0  0  0  0  0  0  0  0  0  0
   17.3370   17.2360    5.6720 C   0  0  2  0  0  0  0  0  0  0  0  0
   18.7620   17.5890    5.3870 C   0  0  0  0  0  0  0  0  0  0  0  0
   19.5460   17.9790    6.2440 O   0  0  0  0  0  0  0  0  0  0  0  0
   16.4630   18.2210    4.9100 C   0  0  0  0  0  0  0  0  0  0  0  0
   15.0430   17.8150    5.0040 C   0  0  0  0  0  0  0  0  0  0  0  0
   16.6430   19.6250    5.4680 C   0  0  0  0  0  0  0  0  0  0  0  0
   19.1490   17.4750    4.2040 O   0  0  0  0  0  0  0  0  0  0  0  0
  2  1  1  0
  3  2  1  0
  4  3  2  0
  5  3  1  0
  6  5  1  0
  7  6  1  0
  8  7  2  0
  6  9  1  6
 10  9  1  0
 11 10  2  0
 12 10  1  0
 13 11  1  0
 14 12  2  0
 15 14  1  0
 15 13  2  0
 16  7  1  0
 17 16  1  0
 17 18  1  6
 19 18  2  0
 20 17  1  0
 21 20  1  0
 22 21  1  0
 22 16  1  0
 23 18  1  0
 24 23  1  0
 25 24  1  0
 26 25  2  0
 24 27  1  1
 28 25  1  0
 29 28  1  6
 30 29  1  0
 30 31  1  1
 32 30  1  0
 33 32  1  0
 34 33  1  0
 35 33  1  0
 36 33  1  0
 37 29  1  0
 38 37  1  0
 39 37  1  0
 40 39  1  1
 41 40  1  0
 42 41  2  0
 43 40  1  0
 44 43  1  0
 45 43  1  0
 46 41  1  0
M  END
$$$$
2QZO
     RDKit          3D

 72 72  0  0  0  0  0  0  0  0999 V2000
   -0.5570  -17.0620   -7.3400 N   0  0  0  0  0  0  0  0  0  0  0  0
    0.7450  -16.3690   -7.1110 C   0  0  2  0  0  0  0  0  0  0  0  0
    1.9120  -17.0590   -7.8300 C   0  0  0  0  0  0  0  0  0  0  0  0
    2.9890  -17.2280   -7.2530 O   0  0  0  0  0  0  0  0  0  0  0  0
    1.0370  -16.2810   -5.6120 C   0  0  0  0  0  0  0  0  0  0  0  0
    1.6980  -17.4280   -9.0960 N   0  0  0  0  0  0  0  0  0  0  0  0
    2.6850  -18.1840   -9.8670 C   0  0  2  0  0  0  0  0  0  0  0  0
    3.5880  -17.3220  -10.7780 C   0  0  0  0  0  0  0  0  0  0  0  0
    4.6790  -17.7560  -11.1310 O   0  0  0  0  0  0  0  0  0  0  0  0
    1.9820  -19.2770  -10.6880 C   0  0  0  0  0  0  0  0  0  0  0  0
    3.1640  -16.1140  -11.1520 N   0  0  0  0  0  0  0  0  0  0  0  0
    3.9830  -15.2780  -12.0520 C   0  0  2  0  0  0  0  0  0  0  0  0
    5.3720  -15.0240  -11.4440 C   0  0  0  0  0  0  0  0  0  0  0  0
    6.3840  -15.2280  -12.0830 O   0  0  0  0  0  0  0  0  0  0  0  0
    3.2980  -13.9170  -12.4030 C   0  0  2  0  0  0  0  0  0  0  0  0
    2.0090  -14.1340  -13.2000 C   0  0  0  0  0  0  0  0  0  0  0  0
    4.2220  -13.0400  -13.2470 C   0  0  0  0  0  0  0  0  0  0  0  0
    1.2270  -12.8500  -13.4740 C   0  0  0  0  0  0  0  0  0  0  0  0
    5.3980  -14.6110  -10.1790 N   0  0  0  0  0  0  0  0  0  0  0  0
    6.6520  -14.2840   -9.4960 C   0  0  2  0  0  0  0  0  0  0  0  0
    7.5770  -15.4830   -9.4430 C   0  0  0  0  0  0  0  0  0  0  0  0
    8.7910  -15.3650   -9.6790 O   0  0  0  0  0  0  0  0  0  0  0  0
    6.3470  -13.7660   -8.0780 C   0  0  0  0  0  0  0  0  0  0  0  0
    7.5270  -13.2580   -7.2490 C   0  0  0  0  0  0  0  0  0  0  0  0
    8.3500  -12.2280   -8.0140 C   0  0  0  0  0  0  0  0  0  0  0  0
    7.0320  -12.6940   -5.9200 C   0  0  0  0  0  0  0  0  0  0  0  0
    6.9760  -16.6410   -9.1400 N   0  0  0  0  0  0  0  0  0  0  0  0
    7.6670  -17.9270   -9.1000 C   0  0  2  0  0  0  0  0  0  0  0  0
    8.3450  -18.2480  -10.4410 C   0  0  0  0  0  0  0  0  0  0  0  0
    9.5310  -18.5840  -10.4840 O   0  0  0  0  0  0  0  0  0  0  0  0
    6.6650  -19.0240   -8.7090 C   0  0  0  0  0  0  0  0  0  0  0  0
    7.2480  -20.4000   -8.6670 C   0  0  0  0  0  0  0  0  0  0  0  0
    8.0390  -20.8440   -7.6290 N   0  0  0  0  0  0  0  0  0  0  0  0
    7.1290  -21.4430   -9.5230 C   0  0  0  0  0  0  0  0  0  0  0  0
    8.4030  -22.0930   -7.8600 C   0  0  0  0  0  0  0  0  0  0  0  0
    7.8620  -22.4810   -9.0010 N   0  0  0  0  0  0  0  0  0  0  0  0
    7.5800  -18.1370  -11.5260 N   0  0  0  0  0  0  0  0  0  0  0  0
    8.1190  -18.2810  -12.8750 C   0  0  2  0  0  0  0  0  0  0  0  0
    9.2650  -17.2960  -13.1460 C   0  0  0  0  0  0  0  0  0  0  0  0
   10.3080  -17.6840  -13.6720 O   0  0  0  0  0  0  0  0  0  0  0  0
    7.0010  -18.0840  -13.9070 C   0  0  0  0  0  0  0  0  0  0  0  0
    7.3940  -18.4810  -15.3220 C   0  0  0  0  0  0  0  0  0  0  0  0
    6.3460  -18.0600  -16.3490 C   0  0  0  0  0  0  0  0  0  0  0  0
    6.2450  -16.5980  -16.4660 N   0  0  0  0  0  0  0  0  0  0  0  0
    5.1090  -15.8880  -16.4730 C   0  0  0  0  0  0  0  0  0  0  0  0
    3.9150  -16.4730  -16.3810 N   0  0  0  0  0  0  0  0  0  0  0  0
    5.1660  -14.5640  -16.5880 N   0  0  0  0  0  0  0  0  0  0  0  0
    9.0850  -16.0260  -12.7640 N   0  0  0  0  0  0  0  0  0  0  0  0
   10.1070  -15.0020  -13.0280 C   0  0  2  0  0  0  0  0  0  0  0  0
   11.3870  -15.2430  -12.2350 C   0  0  0  0  0  0  0  0  0  0  0  0
   12.4660  -14.9300  -12.7110 O   0  0  0  0  0  0  0  0  0  0  0  0
    9.5990  -13.5770  -12.7550 C   0  0  0  0  0  0  0  0  0  0  0  0
    8.7600  -12.8450  -13.8040 C   0  0  0  0  0  0  0  0  0  0  0  0
    9.1450  -13.2600  -15.2380 C   0  0  0  0  0  0  0  0  0  0  0  0
    7.2870  -13.0850  -13.5610 C   0  0  0  0  0  0  0  0  0  0  0  0
   11.2660  -15.7660  -11.0220 N   0  0  0  0  0  0  0  0  0  0  0  0
   12.4410  -16.0510  -10.1940 C   0  0  2  0  0  0  0  0  0  0  0  0
   13.2410  -17.2340  -10.7680 C   0  0  0  0  0  0  0  0  0  0  0  0
   14.4590  -17.3110  -10.5990 O   0  0  0  0  0  0  0  0  0  0  0  0
   12.0260  -16.3020   -8.7400 C   0  0  0  0  0  0  0  0  0  0  0  0
   11.7990  -15.0270   -7.9100 C   0  0  0  0  0  0  0  0  0  0  0  0
   11.0830  -15.3320   -6.5670 C   0  0  0  0  0  0  0  0  0  0  0  0
   13.1160  -14.2960   -7.6510 C   0  0  0  0  0  0  0  0  0  0  0  0
   12.5440  -18.1390  -11.4510 N   0  0  0  0  0  0  0  0  0  0  0  0
   13.1870  -19.2450  -12.1690 C   0  0  2  0  0  0  0  0  0  0  0  0
   13.7850  -18.7830  -13.4940 C   0  0  0  0  0  0  0  0  0  0  0  0
   14.8920  -18.2430  -13.5230 O   0  0  0  0  0  0  0  0  0  0  0  0
   12.1870  -20.3790  -12.4190 C   0  0  0  0  0  0  0  0  0  0  0  0
   11.7630  -21.0770  -11.1360 C   0  0  0  0  0  0  0  0  0  0  0  0
   10.8900  -22.2760  -11.3820 C   0  0  0  0  0  0  0  0  0  0  0  0
   11.2580  -23.4020  -11.0410 O   0  0  0  0  0  0  0  0  0  0  0  0
    9.7250  -22.0500  -11.9850 N   0  0  0  0  0  0  0  0  0  0  0  0
  2  1  1  0
  3  2  1  0
  4  3  2  0
  2  5  1  1
  6  3  1  0
  7  6  1  0
  8  7  1  0
  9  8  2  0
  7 10  1  6
 11  8  1  0
 12 11  1  1
 13 12  1  0
 14 13  2  0
 15 12  1  0
 16 15  1  0
 15 17  1  6
 18 16  1  0
 19 13  1  0
 20 19  1  0
 21 20  1  0
 22 21  2  0
 20 23  1  1
 24 23  1  0
 25 24  1  0
 26 24  1  0
 27 21  1  0
 28 27  1  0
 29 28  1  0
 30 29  2  0
 28 31  1  6
 32 31  1  0
 33 32  1  0
 34 32  2  0
 35 33  2  0
 36 35  1  0
 36 34  1  0
 37 29  1  0
 38 37  1  0
 39 38  1  0
 40 39  2  0
 38 41  1  6
 42 41  1  0
 43 42  1  0
 44 43  1  0
 45 44  1  0
 46 45  1  0
 47 45  2  0
 48 39  1  0
 49 48  1  0
 50 49  1  0
 51 50  2  0
 49 52  1  1
 53 52  1  0
 54 53  1  0
 55 53  1  0
 56 50  1  0
 57 56  1  0
 58 57  1  0
 59 58  2  0
 57 60  1  1
 61 60  1  0
 62 61  1  0
 63 61  1  0
 64 58  1  0
 65 64  1  0
 66 65  1  0
 67 66  2  0
 65 68  1  6
 69 68  1  0
 70 69  1  0
 71 70  2  0
 72 70  1  0
M  END
$$$$
