4j24
     RDKit          3D

 20 23  0  0  0  0  0  0  0  0999 V2000
  -24.9890   34.0470  -13.1180 C   0  0  0  0  0  0  0  0  0  0  0  0
  -24.9920   32.8270  -12.4600 C   0  0  0  0  0  0  0  0  0  0  0  0
  -25.5670   31.6990  -13.0400 C   0  0  0  0  0  0  0  0  0  0  0  0
  -25.5390   30.5170  -12.3900 O   0  0  0  0  0  0  0  0  0  0  0  0
  -26.1680   31.7930  -14.2870 C   0  0  0  0  0  0  0  0  0  0  0  0
  -26.2210   33.0080  -14.9710 C   0  0  0  0  0  0  0  0  0  0  0  0
  -26.9070   33.0880  -16.3180 C   0  0  0  0  0  0  0  0  0  0  0  0
  -27.2100   34.5240  -16.7240 C   0  0  0  0  0  0  0  0  0  0  0  0
  -25.9640   35.3850  -16.5630 C   0  0  2  0  0  0  0  0  0  0  0  0
  -25.6220   35.5380  -15.0760 C   0  0  1  0  0  0  0  0  0  0  0  0
  -25.5860   34.2130  -14.3700 C   0  0  0  0  0  0  0  0  0  0  0  0
  -24.3370   36.3770  -14.9180 C   0  0  0  0  0  0  0  0  0  0  0  0
  -24.4060   37.7390  -15.6510 C   0  0  0  0  0  0  0  0  0  0  0  0
  -24.8400   37.6050  -17.1040 C   0  0  1  0  0  0  0  0  0  0  0  0
  -26.1290   36.7930  -17.1660 C   0  0  1  0  0  0  0  0  0  0  0  0
  -26.5990   36.9710  -18.6170 C   0  0  0  0  0  0  0  0  0  0  0  0
  -26.1550   38.3830  -19.0090 C   0  0  0  0  0  0  0  0  0  0  0  0
  -25.2820   38.8730  -17.8320 C   0  0  2  0  0  0  0  0  0  0  0  0
  -24.2080   39.6740  -18.3330 O   0  0  0  0  0  0  0  0  0  0  0  0
  -23.7230   36.9410  -17.8820 C   0  0  0  0  0  0  0  0  0  0  0  0
  1  2  1  0
  1 11  1  0
  2  3  1  0
  3  4  1  0
  3  5  1  0
  5  6  1  0
  6  7  1  0
  6 11  1  0
  7  8  1  0
  9  8  1  1
  9 10  1  0
  9 15  1  0
 10 11  1  0
 10 12  1  6
 12 13  1  0
 13 14  1  0
 14 15  1  0
 14 18  1  0
 14 20  1  6
 15 16  1  6
 16 17  1  0
 17 18  1  0
 18 19  1  6
M  END
>  <PDB_ID>  (1) 
4j24

>  <HeavyAtoms>  (1) 
20

>  <MolWt>  (1) 
278.44

>  <SMILES>  (1) 
C[C@]12CC[C@@H]3C4CCC(O)CC4CC[C@H]3[C@@H]1CC[C@@H]2O

$$$$
4j24_lig2
     RDKit          3D

 20 23  0  0  0  0  0  0  0  0999 V2000
  -21.3300   33.5580  -47.5880 C   0  0  0  0  0  0  0  0  0  0  0  0
  -21.9910   32.5020  -48.2270 C   0  0  0  0  0  0  0  0  0  0  0  0
  -22.1370   31.2480  -47.6280 C   0  0  0  0  0  0  0  0  0  0  0  0
  -22.7710   30.2410  -48.3020 O   0  0  0  0  0  0  0  0  0  0  0  0
  -21.5990   31.0100  -46.3700 C   0  0  0  0  0  0  0  0  0  0  0  0
  -20.9320   32.0380  -45.6960 C   0  0  0  0  0  0  0  0  0  0  0  0
  -20.3820   31.7680  -44.3220 C   0  0  0  0  0  0  0  0  0  0  0  0
  -19.2930   32.7590  -43.9830 C   0  0  0  0  0  0  0  0  0  0  0  0
  -19.8560   34.1440  -44.1120 C   0  0  2  0  0  0  0  0  0  0  0  0
  -20.0370   34.4620  -45.6040 C   0  0  1  0  0  0  0  0  0  0  0  0
  -20.8010   33.3800  -46.3020 C   0  0  1  0  0  0  0  0  0  0  0  0
  -20.6180   35.8540  -45.7990 C   0  0  0  0  0  0  0  0  0  0  0  0
  -19.7950   36.9390  -45.0950 C   0  0  0  0  0  0  0  0  0  0  0  0
  -19.5450   36.5820  -43.6360 C   0  0  1  0  0  0  0  0  0  0  0  0
  -18.9330   35.2030  -43.5220 C   0  0  1  0  0  0  0  0  0  0  0  0
  -18.4720   35.1100  -42.0570 C   0  0  0  0  0  0  0  0  0  0  0  0
  -18.0770   36.5490  -41.6880 C   0  0  0  0  0  0  0  0  0  0  0  0
  -18.4600   37.3790  -42.9160 C   0  0  2  0  0  0  0  0  0  0  0  0
  -18.8850   38.6680  -42.4950 O   0  0  0  0  0  0  0  0  0  0  0  0
  -20.8850   36.6940  -42.8940 C   0  0  0  0  0  0  0  0  0  0  0  0
  1  2  1  0
 11  1  1  6
  2  3  1  0
  3  4  1  0
  3  5  1  0
  5  6  1  0
  6  7  1  0
  6 11  1  0
  7  8  1  0
  9  8  1  6
  9 10  1  0
  9 15  1  0
 10 11  1  0
 10 12  1  1
 12 13  1  0
 13 14  1  0
 14 15  1  0
 14 18  1  0
 14 20  1  1
 15 16  1  1
 16 17  1  0
 17 18  1  0
 18 19  1  1
M  END
>  <PDB_ID>  (2) 
4j24

>  <HeavyAtoms>  (2) 
20

>  <MolWt>  (2) 
278.44

>  <SMILES>  (2) 
C[C@]12CC[C@H]3[C@@H](CCC4CC(O)CC[C@@H]43)[C@@H]1CC[C@@H]2O

$$$$
4j24_lig3
     RDKit          3D

 20 23  0  0  0  0  0  0  0  0999 V2000
  -25.4040   15.5910    9.0130 C   0  0  0  0  0  0  0  0  0  0  0  0
  -25.3580   16.8170    8.3590 C   0  0  0  0  0  0  0  0  0  0  0  0
  -25.9710   17.9360    8.8980 C   0  0  0  0  0  0  0  0  0  0  0  0
  -25.9280   19.1200    8.2510 O   0  0  0  0  0  0  0  0  0  0  0  0
  -26.6230   17.8470   10.1290 C   0  0  0  0  0  0  0  0  0  0  0  0
  -26.7000   16.6420   10.8190 C   0  0  0  0  0  0  0  0  0  0  0  0
  -27.4390   16.5860   12.1390 C   0  0  0  0  0  0  0  0  0  0  0  0
  -27.7550   15.1530   12.5310 C   0  0  0  0  0  0  0  0  0  0  0  0
  -26.5150   14.2880   12.4210 C   0  0  2  0  0  0  0  0  0  0  0  0
  -26.1220   14.1190   10.9510 C   0  0  1  0  0  0  0  0  0  0  0  0
  -26.0420   15.4410   10.2510 C   0  0  1  0  0  0  0  0  0  0  0  0
  -24.8630   13.2280   10.8120 C   0  0  0  0  0  0  0  0  0  0  0  0
  -24.9840   11.8660   11.5230 C   0  0  0  0  0  0  0  0  0  0  0  0
  -25.4370   12.0420   12.9630 C   0  0  1  0  0  0  0  0  0  0  0  0
  -26.7120   12.8880   13.0100 C   0  0  1  0  0  0  0  0  0  0  0  0
  -27.2150   12.7290   14.4470 C   0  0  0  0  0  0  0  0  0  0  0  0
  -26.8000   11.3050   14.8400 C   0  0  0  0  0  0  0  0  0  0  0  0
  -25.9410   10.7890   13.6760 C   0  0  2  0  0  0  0  0  0  0  0  0
  -24.8950    9.9330   14.1370 O   0  0  0  0  0  0  0  0  0  0  0  0
  -24.2710   12.6380   13.7620 C   0  0  0  0  0  0  0  0  0  0  0  0
  1  2  1  0
 11  1  1  6
  2  3  1  0
  3  4  1  0
  3  5  1  0
  5  6  1  0
  6  7  1  0
  6 11  1  0
  7  8  1  0
  9  8  1  6
  9 10  1  0
  9 15  1  0
 10 11  1  0
 10 12  1  1
 12 13  1  0
 13 14  1  0
 14 15  1  0
 14 18  1  0
 14 20  1  1
 15 16  1  1
 16 17  1  0
 17 18  1  0
 18 19  1  1
M  END
>  <PDB_ID>  (3) 
4j24

>  <HeavyAtoms>  (3) 
20

>  <MolWt>  (3) 
278.44

>  <SMILES>  (3) 
C[C@]12CC[C@H]3[C@@H](CCC4CC(O)CC[C@@H]43)[C@@H]1CC[C@@H]2O

$$$$
4j24_lig4
     RDKit          3D

 20 23  0  0  0  0  0  0  0  0999 V2000
  -21.8540   15.8010   43.1070 C   0  0  0  0  0  0  0  0  0  0  0  0
  -22.4600   16.8550   43.7980 C   0  0  0  0  0  0  0  0  0  0  0  0
  -22.4500   18.1610   43.3010 C   0  0  0  0  0  0  0  0  0  0  0  0
  -23.0630   19.1490   44.0230 O   0  0  0  0  0  0  0  0  0  0  0  0
  -21.8590   18.4480   42.0740 C   0  0  0  0  0  0  0  0  0  0  0  0
  -21.2420   17.4310   41.3420 C   0  0  0  0  0  0  0  0  0  0  0  0
  -20.5880   17.7540   40.0130 C   0  0  0  0  0  0  0  0  0  0  0  0
  -19.6310   16.6750   39.5470 C   0  0  0  0  0  0  0  0  0  0  0  0
  -20.3160   15.3230   39.6500 C   0  0  2  0  0  0  0  0  0  0  0  0
  -20.5600   14.9380   41.1170 C   0  0  1  0  0  0  0  0  0  0  0  0
  -21.2500   16.0310   41.8680 C   0  0  1  0  0  0  0  0  0  0  0  0
  -21.2480   13.5780   41.2400 C   0  0  0  0  0  0  0  0  0  0  0  0
  -20.4750   12.4810   40.4900 C   0  0  0  0  0  0  0  0  0  0  0  0
  -20.2010   12.8650   39.0350 C   0  0  1  0  0  0  0  0  0  0  0  0
  -19.4940   14.2100   39.0130 C   0  0  1  0  0  0  0  0  0  0  0  0
  -19.0080   14.3590   37.5830 C   0  0  0  0  0  0  0  0  0  0  0  0
  -18.6890   12.9230   37.1520 C   0  0  0  0  0  0  0  0  0  0  0  0
  -19.1740   12.0210   38.2890 C   0  0  2  0  0  0  0  0  0  0  0  0
  -19.6460   10.7570   37.7890 O   0  0  0  0  0  0  0  0  0  0  0  0
  -21.5290   12.8610   38.2850 C   0  0  0  0  0  0  0  0  0  0  0  0
  1  2  1  0
 11  1  1  1
  2  3  1  0
  3  4  1  0
  3  5  1  0
  5  6  1  0
  6  7  1  0
  6 11  1  0
  7  8  1  0
  9  8  1  1
  9 10  1  0
  9 15  1  0
 10 11  1  0
 10 12  1  6
 12 13  1  0
 13 14  1  0
 14 15  1  0
 14 18  1  0
 14 20  1  6
 15 16  1  6
 16 17  1  0
 17 18  1  0
 18 19  1  6
M  END
>  <PDB_ID>  (4) 
4j24

>  <HeavyAtoms>  (4) 
20

>  <MolWt>  (4) 
278.44

>  <SMILES>  (4) 
C[C@]12CC[C@H]3[C@@H](CCC4CC(O)CC[C@@H]43)[C@@H]1CC[C@@H]2O

$$$$
1x7j
     RDKit          3D

 20 22  0  0  0  0  0  0  0  0999 V2000
   33.3210   35.5550   37.7830 C   0  0  0  0  0  0  0  0  0  0  0  0
   33.6440   36.3730   36.6620 C   0  0  0  0  0  0  0  0  0  0  0  0
   34.9220   36.1980   36.1290 O   0  0  0  0  0  0  0  0  0  0  0  0
   32.7590   37.3330   36.0770 C   0  0  0  0  0  0  0  0  0  0  0  0
   31.4620   37.5170   36.6180 C   0  0  0  0  0  0  0  0  0  0  0  0
   30.5830   38.4340   36.0840 O   0  0  0  0  0  0  0  0  0  0  0  0
   31.0970   36.6900   37.7710 C   0  0  0  0  0  0  0  0  0  0  0  0
   29.7400   36.8470   38.3760 C   0  0  0  0  0  0  0  0  0  0  0  0
   28.8970   37.6430   37.9550 O   0  0  0  0  0  0  0  0  0  0  0  0
   29.4790   35.9370   39.5690 C   0  0  0  0  0  0  0  0  0  0  0  0
   30.4490   35.0340   40.0410 C   0  0  0  0  0  0  0  0  0  0  0  0
   31.7310   34.9080   39.4430 O   0  0  0  0  0  0  0  0  0  0  0  0
   32.0060   35.7180   38.3560 C   0  0  0  0  0  0  0  0  0  0  0  0
   28.1390   35.9190   40.3680 C   0  0  0  0  0  0  0  0  0  0  0  0
   26.8930   36.0980   39.6630 C   0  0  0  0  0  0  0  0  0  0  0  0
   25.7190   36.0710   40.4700 C   0  0  0  0  0  0  0  0  0  0  0  0
   25.8250   35.8770   41.8570 C   0  0  0  0  0  0  0  0  0  0  0  0
   24.6180   35.8640   42.5510 O   0  0  0  0  0  0  0  0  0  0  0  0
   27.0460   35.6940   42.5990 C   0  0  0  0  0  0  0  0  0  0  0  0
   28.2590   35.7200   41.7980 C   0  0  0  0  0  0  0  0  0  0  0  0
  1  2  1  0
  1 13  1  0
  2  3  1  0
  2  4  1  0
  4  5  1  0
  5  6  1  0
  5  7  1  0
  7  8  1  0
  7 13  1  0
  8  9  1  0
  8 10  1  0
 10 11  1  0
 10 14  1  0
 11 12  1  0
 12 13  1  0
 14 15  1  0
 14 20  1  0
 15 16  1  0
 16 17  1  0
 17 18  1  0
 17 19  1  0
 19 20  1  0
M  END
>  <PDB_ID>  (5) 
1x7j

>  <HeavyAtoms>  (5) 
20

>  <MolWt>  (5) 
286.37

>  <SMILES>  (5) 
OC1CCC(C2COC3CC(O)CC(O)C3C2O)CC1

$$$$
1x7j_lig2
     RDKit          3D

 20 22  0  0  0  0  0  0  0  0999 V2000
   28.9230   28.0980   10.3040 C   0  0  0  0  0  0  0  0  0  0  0  0
   29.2050   27.1480   11.3260 C   0  0  0  0  0  0  0  0  0  0  0  0
   30.5450   27.0030   11.6550 O   0  0  0  0  0  0  0  0  0  0  0  0
   28.2140   26.3660   12.0050 C   0  0  0  0  0  0  0  0  0  0  0  0
   26.8410   26.5160   11.6630 C   0  0  0  0  0  0  0  0  0  0  0  0
   25.8590   25.7840   12.2900 O   0  0  0  0  0  0  0  0  0  0  0  0
   26.5190   27.4870   10.6130 C   0  0  0  0  0  0  0  0  0  0  0  0
   25.0950   27.6870   10.2120 C   0  0  0  0  0  0  0  0  0  0  0  0
   24.1580   27.0750   10.7180 O   0  0  0  0  0  0  0  0  0  0  0  0
   24.8950   28.7230    9.1140 C   0  0  0  0  0  0  0  0  0  0  0  0
   25.9750   29.4180    8.5440 C   0  0  0  0  0  0  0  0  0  0  0  0
   27.3210   29.2050    8.9450 O   0  0  0  0  0  0  0  0  0  0  0  0
   27.5430   28.2740    9.9360 C   0  0  0  0  0  0  0  0  0  0  0  0
   23.5090   29.1190    8.5150 C   0  0  0  0  0  0  0  0  0  0  0  0
   22.3700   29.2710    9.3850 C   0  0  0  0  0  0  0  0  0  0  0  0
   21.1480   29.6420    8.7410 C   0  0  0  0  0  0  0  0  0  0  0  0
   21.1220   29.8350    7.3460 C   0  0  0  0  0  0  0  0  0  0  0  0
   19.8830   30.2030    6.8040 O   0  0  0  0  0  0  0  0  0  0  0  0
   22.2390   29.6910    6.4490 C   0  0  0  0  0  0  0  0  0  0  0  0
   23.4870   29.3130    7.0800 C   0  0  0  0  0  0  0  0  0  0  0  0
  1  2  1  0
  1 13  1  0
  2  3  1  0
  2  4  1  0
  4  5  1  0
  5  6  1  0
  5  7  1  0
  7  8  1  0
  7 13  1  0
  8  9  1  0
  8 10  1  0
 10 11  1  0
 10 14  1  0
 11 12  1  0
 12 13  1  0
 14 15  1  0
 14 20  1  0
 15 16  1  0
 16 17  1  0
 17 18  1  0
 17 19  1  0
 19 20  1  0
M  END
>  <PDB_ID>  (6) 
1x7j

>  <HeavyAtoms>  (6) 
20

>  <MolWt>  (6) 
286.37

>  <SMILES>  (6) 
OC1CCC(C2COC3CC(O)CC(O)C3C2O)CC1

$$$$
4j26
     RDKit          3D

 20 23  0  0  0  0  0  0  0  0999 V2000
   -5.5430   15.5220   -4.7950 C   0  0  0  0  0  0  0  0  0  0  0  0
   -5.1930   14.2250   -4.4260 C   0  0  0  0  0  0  0  0  0  0  0  0
   -3.8790   13.7600   -4.5330 C   0  0  0  0  0  0  0  0  0  0  0  0
   -3.5640   12.4870   -4.1660 O   0  0  0  0  0  0  0  0  0  0  0  0
   -2.8780   14.6020   -5.0130 C   0  0  0  0  0  0  0  0  0  0  0  0
   -3.1760   15.9100   -5.3920 C   0  0  0  0  0  0  0  0  0  0  0  0
   -2.0580   16.7880   -5.9110 C   0  0  0  0  0  0  0  0  0  0  0  0
   -2.6060   17.9790   -6.6890 C   0  0  0  0  0  0  0  0  0  0  0  0
   -3.6490   18.6800   -5.8300 C   0  0  2  0  0  0  0  0  0  0  0  0
   -4.9210   17.8170   -5.6990 C   0  0  1  0  0  0  0  0  0  0  0  0
   -4.5800   16.4210   -5.2690 C   0  0  1  0  0  0  0  0  0  0  0  0
   -5.9710   18.5250   -4.8130 C   0  0  0  0  0  0  0  0  0  0  0  0
   -6.2780   19.9560   -5.2890 C   0  0  0  0  0  0  0  0  0  0  0  0
   -5.0150   20.7970   -5.4480 C   0  0  1  0  0  0  0  0  0  0  0  0
   -4.0620   20.0490   -6.3750 C   0  0  1  0  0  0  0  0  0  0  0  0
   -2.9890   21.0660   -6.7380 C   0  0  0  0  0  0  0  0  0  0  0  0
   -3.7450   22.3950   -6.7430 C   0  0  0  0  0  0  0  0  0  0  0  0
   -5.1610   22.0980   -6.2350 C   0  0  2  0  0  0  0  0  0  0  0  0
   -5.6570   23.2360   -5.5100 O   0  0  0  0  0  0  0  0  0  0  0  0
   -4.4430   21.0970   -4.0490 C   0  0  0  0  0  0  0  0  0  0  0  0
  1  2  1  0
 11  1  1  6
  2  3  1  0
  3  4  1  0
  3  5  1  0
  5  6  1  0
  6  7  1  0
  6 11  1  0
  7  8  1  0
  9  8  1  6
  9 10  1  0
  9 15  1  0
 10 11  1  0
 10 12  1  1
 12 13  1  0
 13 14  1  0
 14 15  1  0
 14 18  1  0
 14 20  1  1
 15 16  1  1
 16 17  1  0
 17 18  1  0
 18 19  1  1
M  END
>  <PDB_ID>  (7) 
4j26

>  <HeavyAtoms>  (7) 
20

>  <MolWt>  (7) 
278.44

>  <SMILES>  (7) 
C[C@]12CC[C@H]3[C@@H](CCC4CC(O)CC[C@@H]43)[C@@H]1CC[C@@H]2O

$$$$
4j26_lig2
     RDKit          3D

 20 23  0  0  0  0  0  0  0  0999 V2000
   21.2500   38.5450    5.3040 C   0  0  0  0  0  0  0  0  0  0  0  0
   22.4780   38.0210    4.9080 C   0  0  0  0  0  0  0  0  0  0  0  0
   22.7380   36.6490    4.9530 C   0  0  0  0  0  0  0  0  0  0  0  0
   23.9490   36.1750    4.5540 O   0  0  0  0  0  0  0  0  0  0  0  0
   21.7530   35.7630    5.3970 C   0  0  0  0  0  0  0  0  0  0  0  0
   20.5040   36.2400    5.8030 C   0  0  0  0  0  0  0  0  0  0  0  0
   19.4600   35.2550    6.2860 C   0  0  0  0  0  0  0  0  0  0  0  0
   18.3880   35.9520    7.1160 C   0  0  0  0  0  0  0  0  0  0  0  0
   17.8410   37.1300    6.3200 C   0  0  2  0  0  0  0  0  0  0  0  0
   18.8930   38.2520    6.1980 C   0  0  1  0  0  0  0  0  0  0  0  0
   20.2160   37.7110    5.7460 C   0  0  0  0  0  0  0  0  0  0  0  0
   18.3370   39.3990    5.3210 C   0  0  0  0  0  0  0  0  0  0  0  0
   16.9830   39.9320    5.8250 C   0  0  0  0  0  0  0  0  0  0  0  0
   15.9570   38.8170    6.0020 C   0  0  1  0  0  0  0  0  0  0  0  0
   16.5680   37.7500    6.9070 C   0  0  1  0  0  0  0  0  0  0  0  0
   15.3930   36.8600    7.2910 C   0  0  0  0  0  0  0  0  0  0  0  0
   14.1980   37.8120    7.3130 C   0  0  0  0  0  0  0  0  0  0  0  0
   14.7140   39.1670    6.8220 C   0  0  2  0  0  0  0  0  0  0  0  0
   13.6570   39.8530    6.1350 O   0  0  0  0  0  0  0  0  0  0  0  0
   15.5310   38.3180    4.6060 C   0  0  0  0  0  0  0  0  0  0  0  0
  1  2  1  0
  1 11  1  0
  2  3  1  0
  3  4  1  0
  3  5  1  0
  5  6  1  0
  6  7  1  0
  6 11  1  0
  7  8  1  0
  9  8  1  1
  9 10  1  0
  9 15  1  0
 10 11  1  0
 10 12  1  6
 12 13  1  0
 13 14  1  0
 14 15  1  0
 14 18  1  0
 14 20  1  6
 15 16  1  6
 16 17  1  0
 17 18  1  0
 18 19  1  6
M  END
>  <PDB_ID>  (8) 
4j26

>  <HeavyAtoms>  (8) 
20

>  <MolWt>  (8) 
278.44

>  <SMILES>  (8) 
C[C@]12CC[C@@H]3C4CCC(O)CC4CC[C@H]3[C@@H]1CC[C@@H]2O

$$$$
1l2j
     RDKit          3D

 24 27  0  0  0  0  0  0  0  0999 V2000
   29.4720   84.5280  -13.2620 C   0  0  0  0  0  0  0  0  0  0  0  0
   30.5310   83.4540  -12.8890 C   0  0  0  0  0  0  0  0  0  0  0  0
   30.9790   83.5710  -11.4000 C   0  0  2  0  0  0  0  0  0  0  0  0
   31.8860   84.7890  -11.2000 C   0  0  0  0  0  0  0  0  0  0  0  0
   31.6400   82.3210  -10.9660 C   0  0  0  0  0  0  0  0  0  0  0  0
   32.9760   82.1540  -11.1290 C   0  0  0  0  0  0  0  0  0  0  0  0
   33.8060   83.2110  -11.6420 C   0  0  0  0  0  0  0  0  0  0  0  0
   35.1320   82.9550  -12.1170 C   0  0  0  0  0  0  0  0  0  0  0  0
   35.9150   84.0210  -12.5950 C   0  0  0  0  0  0  0  0  0  0  0  0
   35.3720   85.3170  -12.5940 C   0  0  0  0  0  0  0  0  0  0  0  0
   36.1680   86.3690  -13.0050 O   0  0  0  0  0  0  0  0  0  0  0  0
   34.0690   85.5890  -12.1470 C   0  0  0  0  0  0  0  0  0  0  0  0
   33.2890   84.5330  -11.6790 C   0  0  0  0  0  0  0  0  0  0  0  0
   30.8240   81.2610  -10.3990 C   0  0  0  0  0  0  0  0  0  0  0  0
   31.4650   80.1890   -9.7200 C   0  0  0  0  0  0  0  0  0  0  0  0
   32.9600   80.2010   -9.5800 C   0  0  0  0  0  0  0  0  0  0  0  0
   33.6170   80.8160  -10.8230 C   0  0  1  0  0  0  0  0  0  0  0  0
   33.4570   79.8620  -12.0570 C   0  0  0  0  0  0  0  0  0  0  0  0
   34.3010   78.5880  -11.9150 C   0  0  0  0  0  0  0  0  0  0  0  0
   30.7250   79.1320   -9.2020 C   0  0  0  0  0  0  0  0  0  0  0  0
   29.3510   79.1470   -9.3500 C   0  0  0  0  0  0  0  0  0  0  0  0
   28.6290   78.1190   -8.8450 O   0  0  0  0  0  0  0  0  0  0  0  0
   28.6830   80.1700  -10.0060 C   0  0  0  0  0  0  0  0  0  0  0  0
   29.4200   81.2470  -10.5360 C   0  0  0  0  0  0  0  0  0  0  0  0
  1  2  1  0
  3  2  1  6
  3  4  1  0
  3  5  1  0
  4 13  1  0
  5  6  1  0
  5 14  1  0
  6  7  1  0
  6 17  1  0
  7  8  1  0
  7 13  1  0
  8  9  1  0
  9 10  1  0
 10 11  1  0
 10 12  1  0
 12 13  1  0
 14 15  1  0
 14 24  1  0
 15 16  1  0
 15 20  1  0
 16 17  1  0
 17 18  1  6
 18 19  1  0
 20 21  1  0
 21 22  1  0
 21 23  1  0
 23 24  1  0
M  END
>  <PDB_ID>  (9) 
1l2j

>  <HeavyAtoms>  (9) 
24

>  <MolWt>  (9) 
334.54

>  <SMILES>  (9) 
CC[C@@H]1CC2CC(O)CCC2C2C1C1CCC(O)CC1C[C@H]2CC

$$$$
1l2j_lig2
     RDKit          3D

 24 27  0  0  0  0  0  0  0  0999 V2000
   15.5570   69.5160   25.7040 C   0  0  0  0  0  0  0  0  0  0  0  0
   14.0780   69.7840   26.0770 C   0  0  0  0  0  0  0  0  0  0  0  0
   13.7950   69.4540   27.5790 C   0  0  2  0  0  0  0  0  0  0  0  0
   13.7520   67.9370   27.8110 C   0  0  0  0  0  0  0  0  0  0  0  0
   12.5330   70.0980   28.0030 C   0  0  0  0  0  0  0  0  0  0  0  0
   11.3440   69.4700   27.8440 C   0  0  0  0  0  0  0  0  0  0  0  0
   11.2620   68.1270   27.3520 C   0  0  0  0  0  0  0  0  0  0  0  0
   10.0230   67.5710   26.8950 C   0  0  0  0  0  0  0  0  0  0  0  0
    9.9820   66.2460   26.4380 C   0  0  0  0  0  0  0  0  0  0  0  0
   11.1730   65.4920   26.4370 C   0  0  0  0  0  0  0  0  0  0  0  0
   11.1290   64.1580   26.0290 O   0  0  0  0  0  0  0  0  0  0  0  0
   12.3960   66.0220   26.8760 C   0  0  0  0  0  0  0  0  0  0  0  0
   12.4340   67.3400   27.3290 C   0  0  0  0  0  0  0  0  0  0  0  0
   12.6030   71.4430   28.5720 C   0  0  2  0  0  0  0  0  0  0  0  0
   11.4520   71.9730   29.2440 C   0  0  0  0  0  0  0  0  0  0  0  0
   10.2440   71.1100   29.4060 C   0  0  0  0  0  0  0  0  0  0  0  0
   10.0540   70.2090   28.1570 C   0  0  1  0  0  0  0  0  0  0  0  0
    9.6350   71.0630   26.9370 C   0  0  0  0  0  0  0  0  0  0  0  0
    8.1960   71.5990   27.0880 C   0  0  0  0  0  0  0  0  0  0  0  0
   11.4500   73.2610   29.7380 C   0  0  0  0  0  0  0  0  0  0  0  0
   12.5900   74.0340   29.5810 C   0  0  0  0  0  0  0  0  0  0  0  0
   12.5900   75.3130   30.0760 O   0  0  0  0  0  0  0  0  0  0  0  0
   13.7440   73.5610   28.9330 C   0  0  0  0  0  0  0  0  0  0  0  0
   13.7620   72.2530   28.4260 C   0  0  0  0  0  0  0  0  0  0  0  0
  1  2  1  0
  3  2  1  6
  3  4  1  0
  3  5  1  0
  4 13  1  0
  5  6  1  0
  5 14  1  0
  6  7  1  0
  6 17  1  0
  7  8  1  0
  7 13  1  0
  8  9  1  0
  9 10  1  0
 10 11  1  0
 10 12  1  0
 12 13  1  0
 14 15  1  0
 14 24  1  6
 15 16  1  0
 15 20  1  0
 16 17  1  0
 17 18  1  6
 18 19  1  0
 20 21  1  0
 21 22  1  0
 21 23  1  0
 23 24  1  0
M  END
>  <PDB_ID>  (10) 
1l2j

>  <HeavyAtoms>  (10) 
24

>  <MolWt>  (10) 
334.54

>  <SMILES>  (10) 
CC[C@@H]1CC2CC(O)CC[C@@H]2C2C1C1CCC(O)CC1C[C@H]2CC

$$$$
3ols
     RDKit          3D

 20 23  0  0  0  0  0  0  0  0999 V2000
   27.0340  -25.5440  -12.6650 C   0  0  0  0  0  0  0  0  0  0  0  0
   27.1170  -24.1890  -12.8950 C   0  0  0  0  0  0  0  0  0  0  0  0
   26.0140  -23.3280  -12.6910 C   0  0  0  0  0  0  0  0  0  0  0  0
   26.1580  -21.9460  -12.9420 O   0  0  0  0  0  0  0  0  0  0  0  0
   24.7850  -23.8580  -12.2490 C   0  0  0  0  0  0  0  0  0  0  0  0
   24.6640  -25.2150  -11.9950 C   0  0  1  0  0  0  0  0  0  0  0  0
   23.3210  -25.7680  -11.5480 C   0  0  0  0  0  0  0  0  0  0  0  0
   23.1850  -27.2880  -11.8340 C   0  0  0  0  0  0  0  0  0  0  0  0
   24.4540  -27.9580  -11.2790 C   0  0  2  0  0  0  0  0  0  0  0  0
   25.7250  -27.5810  -12.0380 C   0  0  1  0  0  0  0  0  0  0  0  0
   25.8230  -26.1060  -12.2310 C   0  0  0  0  0  0  0  0  0  0  0  0
   27.0080  -28.2110  -11.4360 C   0  0  0  0  0  0  0  0  0  0  0  0
   26.8990  -29.7540  -11.3000 C   0  0  0  0  0  0  0  0  0  0  0  0
   25.5790  -30.0760  -10.5430 C   0  0  1  0  0  0  0  0  0  0  0  0
   24.3850  -29.4740  -11.2560 C   0  0  1  0  0  0  0  0  0  0  0  0
   23.1530  -30.0660  -10.5800 C   0  0  0  0  0  0  0  0  0  0  0  0
   23.6770  -31.3980  -10.0090 C   0  0  0  0  0  0  0  0  0  0  0  0
   25.0700  -31.5150  -10.5750 C   0  0  2  0  0  0  0  0  0  0  0  0
   25.8020  -32.3830   -9.7290 O   0  0  0  0  0  0  0  0  0  0  0  0
   25.7370  -29.5740   -9.0740 C   0  0  0  0  0  0  0  0  0  0  0  0
  1  2  1  0
  1 11  1  0
  2  3  1  0
  3  4  1  0
  3  5  1  0
  6  5  1  6
  6  7  1  0
  6 11  1  0
  7  8  1  0
  9  8  1  6
  9 10  1  0
  9 15  1  0
 10 11  1  0
 10 12  1  1
 12 13  1  0
 13 14  1  0
 14 15  1  0
 14 18  1  0
 14 20  1  1
 15 16  1  1
 16 17  1  0
 17 18  1  0
 18 19  1  1
M  END
>  <PDB_ID>  (11) 
3ols

>  <HeavyAtoms>  (11) 
20

>  <MolWt>  (11) 
278.44

>  <SMILES>  (11) 
C[C@]12CC[C@@H]3C4CCC(O)C[C@H]4CC[C@H]3[C@@H]1CC[C@@H]2O

$$$$
3ols_lig2
     RDKit          3D

 20 23  0  0  0  0  0  0  0  0999 V2000
    8.6600  -36.1370   13.9850 C   0  0  0  0  0  0  0  0  0  0  0  0
    7.4230  -35.5500   14.1820 C   0  0  0  0  0  0  0  0  0  0  0  0
    7.2370  -34.1790   13.9750 C   0  0  0  0  0  0  0  0  0  0  0  0
    5.9700  -33.6900   14.2310 O   0  0  0  0  0  0  0  0  0  0  0  0
    8.3020  -33.3560   13.5230 C   0  0  0  0  0  0  0  0  0  0  0  0
    9.5650  -33.9280   13.3100 C   0  0  0  0  0  0  0  0  0  0  0  0
   10.7260  -33.0660   12.8300 C   0  0  0  0  0  0  0  0  0  0  0  0
   12.0910  -33.7670   13.0150 C   0  0  0  0  0  0  0  0  0  0  0  0
   11.9680  -35.2040   12.4730 C   0  0  2  0  0  0  0  0  0  0  0  0
   11.0720  -36.0740   13.3560 C   0  0  1  0  0  0  0  0  0  0  0  0
    9.7550  -35.3880   13.5540 C   0  0  0  0  0  0  0  0  0  0  0  0
   10.9400  -37.5200   12.8260 C   0  0  0  0  0  0  0  0  0  0  0  0
   12.3350  -38.1940   12.5890 C   0  0  0  0  0  0  0  0  0  0  0  0
   13.2900  -37.2430   11.8210 C   0  0  1  0  0  0  0  0  0  0  0  0
   13.3280  -35.8660   12.4230 C   0  0  1  0  0  0  0  0  0  0  0  0
   14.4440  -35.0900   11.7110 C   0  0  0  0  0  0  0  0  0  0  0  0
   15.5070  -36.2030   11.5580 C   0  0  0  0  0  0  0  0  0  0  0  0
   14.7910  -37.5090   11.9190 C   0  0  2  0  0  0  0  0  0  0  0  0
   15.2210  -38.5170   11.0050 O   0  0  0  0  0  0  0  0  0  0  0  0
   12.8380  -37.1490   10.3260 C   0  0  0  0  0  0  0  0  0  0  0  0
  1  2  1  0
  1 11  1  0
  2  3  1  0
  3  4  1  0
  3  5  1  0
  5  6  1  0
  6  7  1  0
  6 11  1  0
  7  8  1  0
  9  8  1  1
  9 10  1  0
  9 15  1  0
 10 11  1  0
 10 12  1  6
 12 13  1  0
 13 14  1  0
 14 15  1  0
 14 18  1  0
 14 20  1  6
 15 16  1  6
 16 17  1  0
 17 18  1  0
 18 19  1  6
M  END
>  <PDB_ID>  (12) 
3ols

>  <HeavyAtoms>  (12) 
20

>  <MolWt>  (12) 
278.44

>  <SMILES>  (12) 
C[C@]12CC[C@@H]3C4CCC(O)CC4CC[C@H]3[C@@H]1CC[C@@H]2O

$$$$
1x78
     RDKit          3D

 20 22  0  0  0  0  0  0  0  0999 V2000
   32.2650   36.7640   35.7030 C   0  0  0  0  0  0  0  0  0  0  0  0
   30.9230   36.9990   36.1130 C   0  0  0  0  0  0  0  0  0  0  0  0
   30.4370   36.4310   37.3150 C   0  0  0  0  0  0  0  0  0  0  0  0
   31.2870   35.6010   38.1510 C   0  0  0  0  0  0  0  0  0  0  0  0
   32.6300   35.3740   37.7260 C   0  0  0  0  0  0  0  0  0  0  0  0
   33.1120   35.9530   36.5100 C   0  0  0  0  0  0  0  0  0  0  0  0
   29.2090   36.5180   37.9020 O   0  0  0  0  0  0  0  0  0  0  0  0
   29.2700   35.7920   39.0470 C   0  0  0  0  0  0  0  0  0  0  0  0
   30.5270   35.1870   39.2750 C   0  0  0  0  0  0  0  0  0  0  0  0
   34.3970   35.7390   36.1000 O   0  0  0  0  0  0  0  0  0  0  0  0
   30.0230   37.8700   35.2370 C   0  0  0  0  0  0  0  0  0  0  0  0
   29.4930   39.0590   35.9520 C   0  0  0  0  0  0  0  0  0  0  0  0
   29.0470   39.9600   36.5260 N   0  0  0  0  0  0  0  0  0  0  0  0
   28.0680   35.7120   39.9480 C   0  0  0  0  0  0  0  0  0  0  0  0
   26.7950   36.1430   39.4230 C   0  0  0  0  0  0  0  0  0  0  0  0
   25.6260   36.1150   40.2410 C   0  0  0  0  0  0  0  0  0  0  0  0
   25.7220   35.6590   41.5840 C   0  0  0  0  0  0  0  0  0  0  0  0
   26.9810   35.2230   42.1290 C   0  0  0  0  0  0  0  0  0  0  0  0
   28.1560   35.2500   41.3130 C   0  0  0  0  0  0  0  0  0  0  0  0
   24.5830   35.6430   42.3610 O   0  0  0  0  0  0  0  0  0  0  0  0
  1  2  1  0
  1  6  1  0
  2  3  1  0
  2 11  1  0
  3  4  1  0
  3  7  1  0
  4  5  1  0
  4  9  1  0
  5  6  1  0
  6 10  1  0
  7  8  1  0
  8  9  1  0
  8 14  1  0
 11 12  1  0
 12 13  1  0
 14 15  1  0
 14 19  1  0
 15 16  1  0
 16 17  1  0
 17 18  1  0
 17 20  1  0
 18 19  1  0
M  END
>  <PDB_ID>  (13) 
1x78

>  <HeavyAtoms>  (13) 
20

>  <MolWt>  (13) 
283.41

>  <SMILES>  (13) 
NCCC1CC(O)CC2CC(C3CCC(O)CC3)OC12

$$$$
1x78_lig2
     RDKit          3D

 20 22  0  0  0  0  0  0  0  0999 V2000
   28.2850   27.2080   11.9600 C   0  0  0  0  0  0  0  0  0  0  0  0
   26.8590   27.2920   11.8130 C   0  0  0  0  0  0  0  0  0  0  0  0
   26.2950   27.9480   10.6910 C   0  0  0  0  0  0  0  0  0  0  0  0
   27.1380   28.5400    9.6680 C   0  0  0  0  0  0  0  0  0  0  0  0
   28.5630   28.4540    9.8170 C   0  0  0  0  0  0  0  0  0  0  0  0
   29.1350   27.7900   10.9600 C   0  0  0  0  0  0  0  0  0  0  0  0
   24.9910   28.1510   10.3440 O   0  0  0  0  0  0  0  0  0  0  0  0
   25.0000   28.8330    9.1710 C   0  0  0  0  0  0  0  0  0  0  0  0
   26.2950   29.1110    8.6900 C   0  0  0  0  0  0  0  0  0  0  0  0
   30.5100   27.7100   11.1100 O   0  0  0  0  0  0  0  0  0  0  0  0
   25.9570   26.6760   12.8780 C   0  0  0  0  0  0  0  0  0  0  0  0
   25.0670   25.6260   12.3270 C   0  0  0  0  0  0  0  0  0  0  0  0
   24.3690   24.8340   11.8480 N   0  0  0  0  0  0  0  0  0  0  0  0
   23.7150   29.2280    8.4900 C   0  0  0  0  0  0  0  0  0  0  0  0
   22.4690   29.0610    9.2010 C   0  0  0  0  0  0  0  0  0  0  0  0
   21.2270   29.4240    8.5870 C   0  0  0  0  0  0  0  0  0  0  0  0
   21.2340   29.9540    7.2610 C   0  0  0  0  0  0  0  0  0  0  0  0
   22.4620   30.1260    6.5390 C   0  0  0  0  0  0  0  0  0  0  0  0
   23.7020   29.7630    7.1510 C   0  0  0  0  0  0  0  0  0  0  0  0
   20.0390   30.3050    6.6700 O   0  0  0  0  0  0  0  0  0  0  0  0
  1  2  1  0
  1  6  1  0
  2  3  1  0
  2 11  1  0
  3  4  1  0
  3  7  1  0
  4  5  1  0
  4  9  1  0
  5  6  1  0
  6 10  1  0
  7  8  1  0
  8  9  1  0
  8 14  1  0
 11 12  1  0
 12 13  1  0
 14 15  1  0
 14 19  1  0
 15 16  1  0
 16 17  1  0
 17 18  1  0
 17 20  1  0
 18 19  1  0
M  END
>  <PDB_ID>  (14) 
1x78

>  <HeavyAtoms>  (14) 
20

>  <MolWt>  (14) 
283.41

>  <SMILES>  (14) 
NCCC1CC(O)CC2CC(C3CCC(O)CC3)OC12

$$$$
2nv7
     RDKit          3D

 20 22  0  0  0  0  0  0  0  0999 V2000
   31.0300   39.4930   36.7750 C   0  0  0  0  0  0  0  0  0  0  0  0
   29.8190   39.6440   37.4490 C   0  0  0  0  0  0  0  0  0  0  0  0
   29.3950   38.6500   38.3290 C   0  0  0  0  0  0  0  0  0  0  0  0
   30.1720   37.4270   38.5940 C   0  0  0  0  0  0  0  0  0  0  0  0
   31.4610   37.2830   37.8730 C   0  0  0  0  0  0  0  0  0  0  0  0
   31.8240   38.3530   36.9790 C   0  0  0  0  0  0  0  0  0  0  0  0
   32.2760   36.0860   38.1070 C   0  0  0  0  0  0  0  0  0  0  0  0
   31.8290   35.0790   39.0110 C   0  0  0  0  0  0  0  0  0  0  0  0
   30.5950   35.2080   39.6850 C   0  0  0  0  0  0  0  0  0  0  0  0
   29.7340   36.3480   39.5150 C   0  0  0  0  0  0  0  0  0  0  0  0
   28.4380   36.3050   40.3220 C   0  0  0  0  0  0  0  0  0  0  0  0
   28.4910   36.1420   41.7510 C   0  0  0  0  0  0  0  0  0  0  0  0
   27.3050   36.0800   42.5170 C   0  0  0  0  0  0  0  0  0  0  0  0
   26.0450   36.1800   41.8780 C   0  0  0  0  0  0  0  0  0  0  0  0
   25.9460   36.3420   40.4780 C   0  0  0  0  0  0  0  0  0  0  0  0
   27.1200   36.3940   39.7030 C   0  0  0  0  0  0  0  0  0  0  0  0
   24.8930   36.1110   42.5910 O   0  0  0  0  0  0  0  0  0  0  0  0
   33.5920   35.8110   37.4300 C   0  0  0  0  0  0  0  0  0  0  0  0
   34.4010   36.7320   36.9950 N   0  0  0  0  0  0  0  0  0  0  0  0
   35.5230   36.1340   36.4080 O   0  0  0  0  0  0  0  0  0  0  0  0
  1  2  1  0
  1  6  1  0
  2  3  1  0
  3  4  1  0
  4  5  1  0
  4 10  1  0
  5  6  1  0
  5  7  1  0
  7  8  1  0
  7 18  1  0
  8  9  1  0
  9 10  1  0
 10 11  1  0
 11 12  1  0
 11 16  1  0
 12 13  1  0
 13 14  1  0
 14 15  1  0
 14 17  1  0
 15 16  1  0
 18 19  1  0
 19 20  1  0
M  END
>  <PDB_ID>  (15) 
2nv7

>  <HeavyAtoms>  (15) 
20

>  <MolWt>  (15) 
281.44

>  <SMILES>  (15) 
ONCC1CCC(C2CCC(O)CC2)C2CCCCC12

$$$$
2nv7_lig2
     RDKit          3D

 20 22  0  0  0  0  0  0  0  0999 V2000
   25.9110   25.2950   11.6720 C   0  0  0  0  0  0  0  0  0  0  0  0
   24.6040   25.5530   11.2700 C   0  0  0  0  0  0  0  0  0  0  0  0
   24.3330   26.6830   10.4840 C   0  0  0  0  0  0  0  0  0  0  0  0
   25.3630   27.6300   10.0570 C   0  0  0  0  0  0  0  0  0  0  0  0
   26.7490   27.3420   10.4770 C   0  0  0  0  0  0  0  0  0  0  0  0
   26.9510   26.1610   11.2870 C   0  0  0  0  0  0  0  0  0  0  0  0
   27.8230   28.2640   10.0600 C   0  0  0  0  0  0  0  0  0  0  0  0
   27.5240   29.4030    9.2810 C   0  0  0  0  0  0  0  0  0  0  0  0
   26.2020   29.6830    8.8790 C   0  0  0  0  0  0  0  0  0  0  0  0
   25.0970   28.8460    9.2300 C   0  0  0  0  0  0  0  0  0  0  0  0
   23.7580   29.3040    8.6960 C   0  0  0  0  0  0  0  0  0  0  0  0
   23.5960   29.4680    7.2850 C   0  0  0  0  0  0  0  0  0  0  0  0
   22.3690   29.8950    6.7360 C   0  0  0  0  0  0  0  0  0  0  0  0
   21.2730   30.1790    7.5870 C   0  0  0  0  0  0  0  0  0  0  0  0
   21.3920   30.0460    8.9860 C   0  0  0  0  0  0  0  0  0  0  0  0
   22.6230   29.6260    9.5450 C   0  0  0  0  0  0  0  0  0  0  0  0
   20.0750   30.5950    7.0700 O   0  0  0  0  0  0  0  0  0  0  0  0
   29.2790   28.0950   10.3860 C   0  0  0  0  0  0  0  0  0  0  0  0
   29.7620   27.3270   11.3130 N   0  0  0  0  0  0  0  0  0  0  0  0
   31.1470   27.4420   11.2930 O   0  0  0  0  0  0  0  0  0  0  0  0
  1  2  1  0
  1  6  1  0
  2  3  1  0
  3  4  1  0
  4  5  1  0
  4 10  1  0
  5  6  1  0
  5  7  1  0
  7  8  1  0
  7 18  1  0
  8  9  1  0
  9 10  1  0
 10 11  1  0
 11 12  1  0
 11 16  1  0
 12 13  1  0
 13 14  1  0
 14 15  1  0
 14 17  1  0
 15 16  1  0
 18 19  1  0
 19 20  1  0
M  END
>  <PDB_ID>  (16) 
2nv7

>  <HeavyAtoms>  (16) 
20

>  <MolWt>  (16) 
281.44

>  <SMILES>  (16) 
ONCC1CCC(C2CCC(O)CC2)C2CCCCC12

$$$$
2yjd
     RDKit          3D

 20 22  0  0  0  0  0  0  0  0999 V2000
  -15.2100  -22.2670    4.6840 C   0  0  0  0  0  0  0  0  0  0  0  0
  -16.1040  -21.7610    3.6820 C   0  0  0  0  0  0  0  0  0  0  0  0
  -15.8560  -20.5060    3.1000 C   0  0  0  0  0  0  0  0  0  0  0  0
  -14.7020  -19.7410    3.4940 C   0  0  0  0  0  0  0  0  0  0  0  0
  -13.8040  -20.2770    4.4910 C   0  0  0  0  0  0  0  0  0  0  0  0
  -14.0450  -21.5210    5.0940 C   0  0  0  0  0  0  0  0  0  0  0  0
  -13.3910  -16.9300    1.6150 N   0  0  0  0  0  0  0  0  0  0  0  0
  -13.3040  -18.1340    2.1620 C   0  0  2  0  0  0  0  0  0  0  0  0
  -12.2700  -18.9860    2.0340 O   0  0  0  0  0  0  0  0  0  0  0  0
  -15.4970  -23.4750    5.2490 O   0  0  0  0  0  0  0  0  0  0  0  0
  -14.5900  -16.4020    1.9080 C   0  0  0  0  0  0  0  0  0  0  0  0
  -15.1750  -15.1650    1.5960 C   0  0  0  0  0  0  0  0  0  0  0  0
  -16.4780  -14.9020    2.0470 C   0  0  0  0  0  0  0  0  0  0  0  0
  -17.1820  -15.8430    2.8140 C   0  0  0  0  0  0  0  0  0  0  0  0
  -10.8450  -18.7460    2.1870 C   0  0  1  0  0  0  0  0  0  0  0  0
  -16.5950  -17.0820    3.1290 C   0  0  0  0  0  0  0  0  0  0  0  0
  -15.2960  -17.3760    2.6960 C   0  0  0  0  0  0  0  0  0  0  0  0
  -10.0480  -19.5350    1.1380 C   0  0  0  0  0  0  0  0  0  0  0  0
  -14.4590  -18.4730    2.8430 N   0  0  0  0  0  0  0  0  0  0  0  0
  -10.3300  -17.3240    2.3050 C   0  0  0  0  0  0  0  0  0  0  0  0
  1  2  1  0
  1  6  1  0
  1 10  1  0
  2  3  1  0
  3  4  1  0
  4  5  1  0
  4 19  1  0
  5  6  1  0
  7  8  1  0
  7 11  1  0
  8  9  1  6
  8 19  1  0
  9 15  1  0
 11 12  1  0
 11 17  1  0
 12 13  1  0
 13 14  1  0
 14 16  1  0
 15 18  1  6
 15 20  1  0
 16 17  1  0
 17 19  1  0
M  END
>  <PDB_ID>  (17) 
2yjd

>  <HeavyAtoms>  (17) 
20

>  <MolWt>  (17) 
282.43

>  <SMILES>  (17) 
CC(C)O[C@H]1NC2CCCCC2N1C1CCC(O)CC1

$$$$
2yjd_lig2
     RDKit          3D

 20 22  0  0  0  0  0  0  0  0999 V2000
  -23.7180  -13.5060  -26.8430 C   0  0  0  0  0  0  0  0  0  0  0  0
  -23.2290  -14.4430  -25.9150 C   0  0  0  0  0  0  0  0  0  0  0  0
  -21.9980  -14.2170  -25.3080 C   0  0  0  0  0  0  0  0  0  0  0  0
  -21.2530  -13.0670  -25.6010 C   0  0  0  0  0  0  0  0  0  0  0  0
  -21.7410  -12.1040  -26.5460 C   0  0  0  0  0  0  0  0  0  0  0  0
  -22.9770  -12.3410  -27.1650 C   0  0  0  0  0  0  0  0  0  0  0  0
  -18.3150  -12.0150  -23.8630 N   0  0  0  0  0  0  0  0  0  0  0  0
  -19.5260  -11.7940  -24.3340 C   0  0  0  0  0  0  0  0  0  0  0  0
  -20.2380  -10.6570  -24.1980 O   0  0  0  0  0  0  0  0  0  0  0  0
  -24.9060  -13.7580  -27.3980 O   0  0  0  0  0  0  0  0  0  0  0  0
  -17.9050  -13.2470  -24.1580 C   0  0  0  0  0  0  0  0  0  0  0  0
  -16.7060  -13.9320  -23.8870 C   0  0  0  0  0  0  0  0  0  0  0  0
  -16.5380  -15.2490  -24.3600 C   0  0  0  0  0  0  0  0  0  0  0  0
  -17.5790  -15.8630  -25.0740 C   0  0  0  0  0  0  0  0  0  0  0  0
  -19.7740   -9.2980  -24.4030 C   0  0  1  0  0  0  0  0  0  0  0  0
  -18.7990  -15.1950  -25.3090 C   0  0  0  0  0  0  0  0  0  0  0  0
  -18.9600  -13.8690  -24.8690 C   0  0  0  0  0  0  0  0  0  0  0  0
  -20.5960   -8.2830  -23.6620 C   0  0  0  0  0  0  0  0  0  0  0  0
  -20.0130  -12.9110  -24.9590 N   0  0  0  0  0  0  0  0  0  0  0  0
  -18.2900   -8.9620  -24.5500 C   0  0  0  0  0  0  0  0  0  0  0  0
  1  2  1  0
  1  6  1  0
  1 10  1  0
  2  3  1  0
  3  4  1  0
  4  5  1  0
  4 19  1  0
  5  6  1  0
  7  8  1  0
  7 11  1  0
  8  9  1  0
  8 19  1  0
  9 15  1  0
 11 12  1  0
 11 17  1  0
 12 13  1  0
 13 14  1  0
 14 16  1  0
 15 18  1  1
 15 20  1  0
 16 17  1  0
 17 19  1  0
M  END
>  <PDB_ID>  (18) 
2yjd

>  <HeavyAtoms>  (18) 
20

>  <MolWt>  (18) 
282.43

>  <SMILES>  (18) 
CC(C)OC1NC2CCCCC2N1C1CCC(O)CC1

$$$$
7xwr
     RDKit          3D

 31 32  0  0  0  0  0  0  0  0999 V2000
    3.0880    5.0270   12.7260 N   0  0  0  0  0  0  0  0  0  0  0  0
    1.9500    8.2740   10.7150 C   0  0  0  0  0  0  0  0  0  0  0  0
    3.0870    8.3900   11.6950 C   0  0  2  0  0  0  0  0  0  0  0  0
    4.0620    7.2260   11.6530 C   0  0  2  0  0  0  0  0  0  0  0  0
    3.4620    6.0070   12.2370 C   0  0  0  0  0  0  0  0  0  0  0  0
    5.3630    7.5650   12.3620 C   0  0  2  0  0  0  0  0  0  0  0  0
    6.9360    7.2220   14.1740 C   0  0  0  0  0  0  0  0  0  0  0  0
    6.2660    8.4570   11.8090 C   0  0  0  0  0  0  0  0  0  0  0  0
    1.0500    8.4790    8.4870 C   0  0  0  0  0  0  0  0  0  0  0  0
   -1.2920    8.0020    8.1450 O   0  0  0  0  0  0  0  0  0  0  0  0
   -0.1990    8.0920    8.9570 C   0  0  0  0  0  0  0  0  0  0  0  0
   -0.3710    7.7780   10.2830 C   0  0  0  0  0  0  0  0  0  0  0  0
    0.6980    7.8820   11.1490 C   0  0  0  0  0  0  0  0  0  0  0  0
    5.7290    6.9410   13.5550 C   0  0  0  0  0  0  0  0  0  0  0  0
    7.8040    8.1310   13.5940 C   0  0  0  0  0  0  0  0  0  0  0  0
    9.0220    8.4300   14.1520 O   0  0  0  0  0  0  0  0  0  0  0  0
    7.4650    8.7560   12.4110 C   0  0  0  0  0  0  0  0  0  0  0  0
    5.9290    9.2870   10.3190 Cl  0  0  0  0  0  0  0  0  0  0  0  0
    2.1160    8.5610    9.3670 C   0  0  0  0  0  0  0  0  0  0  0  0
    2.7140    8.4600   12.5980 H   0  0  0  0  0  0  0  0  0  0  0  0
    3.5690    9.2230   11.5150 H   0  0  0  0  0  0  0  0  0  0  0  0
    4.2810    7.0270   10.7040 H   0  0  0  0  0  0  0  0  0  0  0  0
    7.1680    6.7940   14.9820 H   0  0  0  0  0  0  0  0  0  0  0  0
    1.1690    8.6880    7.5760 H   0  0  0  0  0  0  0  0  0  0  0  0
   -0.9630    8.2500    7.2260 H   0  0  0  0  0  0  0  0  0  0  0  0
   -1.2220    7.5260   10.6040 H   0  0  0  0  0  0  0  0  0  0  0  0
    0.5690    7.6820   12.0620 H   0  0  0  0  0  0  0  0  0  0  0  0
    5.1440    6.3160   13.9490 H   0  0  0  0  0  0  0  0  0  0  0  0
    9.4090    8.9760   13.8550 H   0  0  0  0  0  0  0  0  0  0  0  0
    8.0540    9.3660   12.0110 H   0  0  0  0  0  0  0  0  0  0  0  0
    2.9590    8.8420    9.0510 H   0  0  0  0  0  0  0  0  0  0  0  0
  1  5  1  0
  2  3  1  0
  2 13  1  0
  2 19  1  0
  3  4  1  0
  3 20  1  1
  3 21  1  0
  4  5  1  0
  4  6  1  0
  4 22  1  6
  6  8  1  6
  6 14  1  0
  7 14  1  0
  7 15  1  0
  7 23  1  0
  8 17  1  0
  8 18  1  0
  9 11  1  0
  9 19  1  0
  9 24  1  0
 10 11  1  0
 10 25  1  0
 11 12  1  0
 12 13  1  0
 12 26  1  0
 13 27  1  0
 14 28  1  0
 15 16  1  0
 15 17  1  0
 16 29  1  0
 17 30  1  0
 19 31  1  0
M  END
>  <PDB_ID>  (19) 
7xwr

>  <HeavyAtoms>  (19) 
19

>  <MolWt>  (19) 
289.85

>  <SMILES>  (19) 
[H]OC1C([H])C([H])C(C([H])([H])[C@]([H])(CN)[C@H]2C([H])C([H])C(O[H])C([H])C2Cl)C([H])C1[H]

$$$$
7xwr_lig2
     RDKit          3D

 31 32  0  0  0  0  0  0  0  0999 V2000
   -1.5890   18.1950   40.0260 N   0  0  0  0  0  0  0  0  0  0  0  0
   -2.0880   14.6960   41.7100 C   0  0  1  0  0  0  0  0  0  0  0  0
   -0.8180   14.9330   40.9070 C   0  0  2  0  0  0  0  0  0  0  0  0
   -0.1290   16.2760   41.0770 C   0  0  2  0  0  0  0  0  0  0  0  0
   -0.9480   17.3410   40.4730 C   0  0  0  0  0  0  0  0  0  0  0  0
    1.2570   16.3050   40.4560 C   0  0  2  0  0  0  0  0  0  0  0  0
    2.8090   17.1050   38.7590 C   0  0  0  0  0  0  0  0  0  0  0  0
    2.3300   15.6710   41.0760 C   0  0  2  0  0  0  0  0  0  0  0  0
   -3.2000   13.9360   43.7330 C   0  0  0  0  0  0  0  0  0  0  0  0
   -5.5950   13.8240   43.8080 O   0  0  0  0  0  0  0  0  0  0  0  0
   -4.4320   14.0950   43.1340 C   0  0  0  0  0  0  0  0  0  0  0  0
   -4.4970   14.5730   41.8360 C   0  0  0  0  0  0  0  0  0  0  0  0
   -3.3350   14.8450   41.1310 C   0  0  0  0  0  0  0  0  0  0  0  0
    1.5310   17.0410   39.2850 C   0  0  0  0  0  0  0  0  0  0  0  0
    3.8450   16.4440   39.3990 C   0  0  0  0  0  0  0  0  0  0  0  0
    5.1250   16.5150   38.9000 O   0  0  0  0  0  0  0  0  0  0  0  0
    3.6150   15.7240   40.5600 C   0  0  0  0  0  0  0  0  0  0  0  0
    2.0760   14.7000   42.4970 Cl  0  0  0  0  0  0  0  0  0  0  0  0
   -2.0500   14.2300   43.0150 C   0  0  0  0  0  0  0  0  0  0  0  0
   -1.0370   14.8180   39.9580 H   0  0  0  0  0  0  0  0  0  0  0  0
   -0.1820   14.2250   41.1360 H   0  0  0  0  0  0  0  0  0  0  0  0
   -0.0360   16.4740   42.0460 H   0  0  0  0  0  0  0  0  0  0  0  0
    2.9800   17.6170   37.9860 H   0  0  0  0  0  0  0  0  0  0  0  0
   -3.1400   13.6250   44.6200 H   0  0  0  0  0  0  0  0  0  0  0  0
   -5.2750   13.6030   44.6990 H   0  0  0  0  0  0  0  0  0  0  0  0
   -5.3360   14.6830   41.4200 H   0  0  0  0  0  0  0  0  0  0  0  0
   -3.3980   15.1440   40.2380 H   0  0  0  0  0  0  0  0  0  0  0  0
    0.8350   17.5150   38.8630 H   0  0  0  0  0  0  0  0  0  0  0  0
    5.7160   16.0530   39.6870 H   0  0  0  0  0  0  0  0  0  0  0  0
    4.3130   15.2570   40.9790 H   0  0  0  0  0  0  0  0  0  0  0  0
   -1.2120   14.0910   43.4230 H   0  0  0  0  0  0  0  0  0  0  0  0
  1  5  1  0
  2  3  1  0
  2 13  1  6
  2 19  1  0
  3  4  1  0
  3 20  1  6
  3 21  1  0
  4  5  1  0
  4  6  1  0
  4 22  1  1
  6  8  1  0
  6 14  1  1
  7 14  1  0
  7 15  1  0
  7 23  1  0
  8 17  1  0
  8 18  1  6
  9 11  1  0
  9 19  1  0
  9 24  1  0
 10 11  1  0
 10 25  1  0
 11 12  1  0
 12 13  1  0
 12 26  1  0
 13 27  1  0
 14 28  1  0
 15 16  1  0
 15 17  1  0
 16 29  1  0
 17 30  1  0
 19 31  1  0
M  END
>  <PDB_ID>  (20) 
7xwr

>  <HeavyAtoms>  (20) 
19

>  <MolWt>  (20) 
289.85

>  <SMILES>  (20) 
[H]OC1C([H])C([H])C(C([H])([H])[C@]([H])(CN)[C@H]2C([H])C([H])C(O[H])C([H])[C@@H]2Cl)C([H])C1[H]

$$$$
7xwq
     RDKit          3D

 19 20  0  0  0  0  0  0  0  0999 V2000
   -2.6950   -5.2030  -37.9780 N   0  0  0  0  0  0  0  0  0  0  0  0
   -4.8160   -8.1600  -38.4720 C   0  0  0  0  0  0  0  0  0  0  0  0
   -3.4440   -8.3320  -39.0440 C   0  0  0  0  0  0  0  0  0  0  0  0
   -2.9710   -7.0840  -39.7820 C   0  0  1  0  0  0  0  0  0  0  0  0
   -2.8240   -5.9930  -38.8010 C   0  0  0  0  0  0  0  0  0  0  0  0
   -1.6900   -7.3750  -40.5570 C   0  0  0  0  0  0  0  0  0  0  0  0
    0.7020   -7.3910  -40.8430 C   0  0  0  0  0  0  0  0  0  0  0  0
   -1.7770   -7.9390  -41.8270 C   0  0  2  0  0  0  0  0  0  0  0  0
   -6.3000   -7.6160  -36.6320 C   0  0  0  0  0  0  0  0  0  0  0  0
   -8.6800   -7.6980  -36.9920 O   0  0  0  0  0  0  0  0  0  0  0  0
   -7.3980   -7.8320  -37.4430 C   0  0  0  0  0  0  0  0  0  0  0  0
   -7.2110   -8.1960  -38.7610 C   0  0  0  0  0  0  0  0  0  0  0  0
   -5.9270   -8.3520  -39.2690 C   0  0  0  0  0  0  0  0  0  0  0  0
   -0.4180   -7.1260  -40.0610 C   0  0  0  0  0  0  0  0  0  0  0  0
    0.5690   -7.9520  -42.1000 C   0  0  0  0  0  0  0  0  0  0  0  0
    1.6640   -8.2540  -42.8690 O   0  0  0  0  0  0  0  0  0  0  0  0
   -0.6840   -8.2200  -42.6090 C   0  0  0  0  0  0  0  0  0  0  0  0
   -3.3280   -8.2380  -42.5180 Cl  0  0  0  0  0  0  0  0  0  0  0  0
   -5.0220   -7.7730  -37.1510 C   0  0  0  0  0  0  0  0  0  0  0  0
  1  5  1  0
  2  3  1  0
  2 13  1  0
  2 19  1  0
  4  3  1  1
  4  5  1  0
  4  6  1  0
  6  8  1  0
  6 14  1  0
  7 14  1  0
  7 15  1  0
  8 17  1  0
  8 18  1  6
  9 11  1  0
  9 19  1  0
 10 11  1  0
 11 12  1  0
 12 13  1  0
 15 16  1  0
 15 17  1  0
M  END
>  <PDB_ID>  (21) 
7xwq

>  <HeavyAtoms>  (21) 
19

>  <MolWt>  (21) 
289.85

>  <SMILES>  (21) 
NC[C@H](CC1CCC(O)CC1)C1CCC(O)C[C@@H]1Cl

$$$$
7xwq_lig2
     RDKit          3D

 19 20  0  0  0  0  0  0  0  0999 V2000
    1.6670  -18.0620  -11.0500 N   0  0  0  0  0  0  0  0  0  0  0  0
   -1.0820  -15.6230  -10.3900 C   0  0  0  0  0  0  0  0  0  0  0  0
    0.2950  -15.0540  -10.1370 C   0  0  0  0  0  0  0  0  0  0  0  0
    1.2490  -16.0090   -9.4770 C   0  0  1  0  0  0  0  0  0  0  0  0
    1.5190  -17.1280  -10.3920 C   0  0  0  0  0  0  0  0  0  0  0  0
    2.5070  -15.3210   -8.9550 C   0  0  0  0  0  0  0  0  0  0  0  0
    4.8340  -14.6330   -9.1180 C   0  0  0  0  0  0  0  0  0  0  0  0
    2.4820  -14.7360   -7.6950 C   0  0  0  0  0  0  0  0  0  0  0  0
   -3.2750  -16.2460   -9.5970 C   0  0  0  0  0  0  0  0  0  0  0  0
   -4.8970  -17.1060  -11.1020 O   0  0  0  0  0  0  0  0  0  0  0  0
   -3.6400  -16.6450  -10.8690 C   0  0  0  0  0  0  0  0  0  0  0  0
   -2.7170  -16.5640  -11.9030 C   0  0  0  0  0  0  0  0  0  0  0  0
   -1.4660  -16.0350  -11.6520 C   0  0  0  0  0  0  0  0  0  0  0  0
    3.7200  -15.2400   -9.6770 C   0  0  0  0  0  0  0  0  0  0  0  0
    4.7640  -14.0780   -7.8440 C   0  0  0  0  0  0  0  0  0  0  0  0
    5.8500  -13.4560   -7.2720 O   0  0  0  0  0  0  0  0  0  0  0  0
    3.5860  -14.1300   -7.1240 C   0  0  0  0  0  0  0  0  0  0  0  0
    1.0190  -14.7840   -6.7520 Cl  0  0  0  0  0  0  0  0  0  0  0  0
   -2.0110  -15.7380   -9.3640 C   0  0  0  0  0  0  0  0  0  0  0  0
  1  5  1  0
  2  3  1  0
  2 13  1  0
  2 19  1  0
  4  3  1  6
  4  5  1  0
  4  6  1  0
  6  8  1  0
  6 14  1  0
  7 14  1  0
  7 15  1  0
  8 17  1  0
  8 18  1  0
  9 11  1  0
  9 19  1  0
 10 11  1  0
 11 12  1  0
 12 13  1  0
 15 16  1  0
 15 17  1  0
M  END
>  <PDB_ID>  (22) 
7xwq

>  <HeavyAtoms>  (22) 
19

>  <MolWt>  (22) 
289.85

>  <SMILES>  (22) 
NC[C@H](CC1CCC(O)CC1)C1CCC(O)CC1Cl

$$$$
7xwp
     RDKit          3D

 19 20  0  0  0  0  0  0  0  0999 V2000
   -2.8060   -5.2680  -38.0160 N   0  0  0  0  0  0  0  0  0  0  0  0
   -5.6060   -7.1270  -38.7150 C   0  0  0  0  0  0  0  0  0  0  0  0
   -5.8840   -6.4950  -37.5120 C   0  0  0  0  0  0  0  0  0  0  0  0
   -7.0890   -6.6860  -36.8580 C   0  0  0  0  0  0  0  0  0  0  0  0
   -4.2820   -6.9080  -39.4310 C   0  0  2  0  0  0  0  0  0  0  0  0
   -3.5730   -8.2300  -39.6700 C   0  0  0  0  0  0  0  0  0  0  0  0
   -2.5270   -8.4910  -41.9680 C   0  0  0  0  0  0  0  0  0  0  0  0
   -0.0640   -7.6470  -41.0240 C   0  0  0  0  0  0  0  0  0  0  0  0
   -3.4140   -5.9940  -38.6660 C   0  0  0  0  0  0  0  0  0  0  0  0
   -9.2310   -7.7240  -36.7690 O   0  0  0  0  0  0  0  0  0  0  0  0
   -8.0410   -7.5270  -37.4030 C   0  0  0  0  0  0  0  0  0  0  0  0
   -7.7870   -8.1620  -38.6050 C   0  0  0  0  0  0  0  0  0  0  0  0
   -6.5780   -7.9610  -39.2480 C   0  0  0  0  0  0  0  0  0  0  0  0
   -2.4070   -8.1430  -40.6240 C   0  0  0  0  0  0  0  0  0  0  0  0
   -1.4450   -8.4240  -42.8300 C   0  0  0  0  0  0  0  0  0  0  0  0
   -0.2150   -8.0010  -42.3550 C   0  0  0  0  0  0  0  0  0  0  0  0
    0.8640   -7.9300  -43.2040 O   0  0  0  0  0  0  0  0  0  0  0  0
   -1.1560   -7.7260  -40.1770 C   0  0  0  0  0  0  0  0  0  0  0  0
   -0.9110   -7.2710  -38.5090 Cl  0  0  0  0  0  0  0  0  0  0  0  0
  1  9  1  0
  2  3  1  0
  2  5  1  0
  2 13  1  0
  3  4  1  0
  4 11  1  0
  5  6  1  1
  5  9  1  0
  6 14  1  0
  7 14  1  0
  7 15  1  0
  8 16  1  0
  8 18  1  0
 10 11  1  0
 11 12  1  0
 12 13  1  0
 14 18  1  0
 15 16  1  0
 16 17  1  0
 18 19  1  0
M  END
>  <PDB_ID>  (23) 
7xwp

>  <HeavyAtoms>  (23) 
19

>  <MolWt>  (23) 
289.85

>  <SMILES>  (23) 
NC[C@@H](CC1CCC(O)CC1Cl)C1CCC(O)CC1

$$$$
7xwp_lig2
     RDKit          3D

 19 20  0  0  0  0  0  0  0  0999 V2000
    1.6730  -18.2080  -11.0270 N   0  0  0  0  0  0  0  0  0  0  0  0
   -1.3030  -16.5790  -10.1560 C   0  0  0  0  0  0  0  0  0  0  0  0
   -1.6630  -17.0790  -11.4000 C   0  0  0  0  0  0  0  0  0  0  0  0
   -2.9900  -17.1620  -11.7890 C   0  0  0  0  0  0  0  0  0  0  0  0
    0.1560  -16.4940   -9.7370 C   0  0  2  0  0  0  0  0  0  0  0  0
    0.6830  -15.0710   -9.8910 C   0  0  0  0  0  0  0  0  0  0  0  0
    1.9130  -14.0520   -7.9250 C   0  0  0  0  0  0  0  0  0  0  0  0
    4.3500  -14.9760   -8.8530 C   0  0  0  0  0  0  0  0  0  0  0  0
    0.9860  -17.4270  -10.5200 C   0  0  0  0  0  0  0  0  0  0  0  0
   -5.2950  -16.8180  -11.3040 O   0  0  0  0  0  0  0  0  0  0  0  0
   -3.9860  -16.7390  -10.9290 C   0  0  0  0  0  0  0  0  0  0  0  0
   -3.6500  -16.2370   -9.6840 C   0  0  0  0  0  0  0  0  0  0  0  0
   -2.3190  -16.1610   -9.3080 C   0  0  0  0  0  0  0  0  0  0  0  0
    1.9420  -14.7880   -9.1080 C   0  0  0  0  0  0  0  0  0  0  0  0
    3.0700  -13.7810   -7.2140 C   0  0  0  0  0  0  0  0  0  0  0  0
    4.2880  -14.2440   -7.6800 C   0  0  0  0  0  0  0  0  0  0  0  0
    5.4420  -13.9830   -6.9800 O   0  0  0  0  0  0  0  0  0  0  0  0
    3.1840  -15.2340   -9.5520 C   0  0  0  0  0  0  0  0  0  0  0  0
    3.3320  -16.1630  -11.0230 Cl  0  0  0  0  0  0  0  0  0  0  0  0
  1  9  1  0
  2  3  1  0
  2  5  1  0
  2 13  1  0
  3  4  1  0
  4 11  1  0
  5  6  1  6
  5  9  1  0
  6 14  1  0
  7 14  1  0
  7 15  1  0
  8 16  1  0
  8 18  1  0
 10 11  1  0
 11 12  1  0
 12 13  1  0
 14 18  1  0
 15 16  1  0
 16 17  1  0
 18 19  1  0
M  END
>  <PDB_ID>  (24) 
7xwp

>  <HeavyAtoms>  (24) 
19

>  <MolWt>  (24) 
289.85

>  <SMILES>  (24) 
NC[C@@H](CC1CCC(O)CC1Cl)C1CCC(O)CC1

$$$$
2z4b
     RDKit          3D

 23 26  0  0  0  0  0  0  0  0999 V2000
   78.2600   40.8340   69.8430 C   0  0  0  0  0  0  0  0  0  0  0  0
   77.1140   38.7230   70.0700 C   0  0  1  0  0  0  0  0  0  0  0  0
   76.6010   38.8260   68.6060 C   0  0  1  0  0  0  0  0  0  0  0  0
   75.2700   39.6550   68.4640 C   0  0  0  0  0  0  0  0  0  0  0  0
   77.5710   39.6040   67.6790 C   0  0  2  0  0  0  0  0  0  0  0  0
   78.3850   40.6910   68.4310 C   0  0  0  0  0  0  0  0  0  0  0  0
   75.3940   36.7880   70.6010 C   0  0  0  0  0  0  0  0  0  0  0  0
   74.5450   36.0760   71.4990 C   0  0  0  0  0  0  0  0  0  0  0  0
   74.4340   36.4900   72.8470 C   0  0  0  0  0  0  0  0  0  0  0  0
   75.1660   37.6160   73.3030 C   0  0  0  0  0  0  0  0  0  0  0  0
   80.0240   42.5650   68.3980 C   0  0  0  0  0  0  0  0  0  0  0  0
   79.8840   42.7000   69.7970 C   0  0  0  0  0  0  0  0  0  0  0  0
   79.0180   41.8470   70.5110 C   0  0  0  0  0  0  0  0  0  0  0  0
   77.4200   40.0300   70.6300 O   0  0  0  0  0  0  0  0  0  0  0  0
   75.3500   40.4150   67.1180 C   0  0  1  0  0  0  0  0  0  0  0  0
   74.2950   40.0060   66.2830 F   0  0  0  0  0  0  0  0  0  0  0  0
   75.2520   41.8020   67.3130 F   0  0  0  0  0  0  0  0  0  0  0  0
   76.7040   40.1040   66.4950 C   0  0  0  0  0  0  0  0  0  0  0  0
   79.2840   41.5630   67.7070 C   0  0  0  0  0  0  0  0  0  0  0  0
   76.1450   37.9260   71.0440 C   0  0  0  0  0  0  0  0  0  0  0  0
   73.6130   35.8070   73.7130 O   0  0  0  0  0  0  0  0  0  0  0  0
   76.0110   38.3250   72.4150 C   0  0  0  0  0  0  0  0  0  0  0  0
   80.8680   43.4340   67.7210 O   0  0  0  0  0  0  0  0  0  0  0  0
  1  6  1  0
  1 13  1  0
  1 14  1  0
  2  3  1  0
  2 14  1  0
  2 20  1  1
  3  4  1  1
  3  5  1  0
  4 15  1  0
  5  6  1  0
  5 18  1  6
  6 19  1  0
  7  8  1  0
  7 20  1  0
  8  9  1  0
  9 10  1  0
  9 21  1  0
 10 22  1  0
 11 12  1  0
 11 19  1  0
 11 23  1  0
 12 13  1  0
 15 16  1  6
 15 17  1  0
 15 18  1  0
 20 22  1  0
M  END
>  <PDB_ID>  (25) 
2z4b

>  <HeavyAtoms>  (25) 
23

>  <MolWt>  (25) 
330.42

>  <SMILES>  (25) 
OC1CCC([C@@H]2OC3CCC(O)CC3[C@@H]3CC(F)(F)C[C@@H]32)CC1

$$$$
2z4b_lig2
     RDKit          3D

 23 26  0  0  0  0  0  0  0  0999 V2000
   91.5230   33.3420   47.1720 C   0  0  0  0  0  0  0  0  0  0  0  0
   90.2470   31.2930   46.9500 C   0  0  1  0  0  0  0  0  0  0  0  0
   90.6010   30.9100   48.4100 C   0  0  1  0  0  0  0  0  0  0  0  0
   91.9650   30.1530   48.5320 C   0  0  0  0  0  0  0  0  0  0  0  0
   90.7940   32.1460   49.3350 C   0  0  2  0  0  0  0  0  0  0  0  0
   91.3310   33.3870   48.5780 C   0  0  0  0  0  0  0  0  0  0  0  0
   90.4990   30.1170   44.6330 C   0  0  0  0  0  0  0  0  0  0  0  0
   90.3430   29.0180   43.7570 C   0  0  0  0  0  0  0  0  0  0  0  0
   89.7400   27.8130   44.2150 C   0  0  0  0  0  0  0  0  0  0  0  0
   89.2890   27.7150   45.5600 C   0  0  0  0  0  0  0  0  0  0  0  0
   92.1280   35.7340   48.5980 C   0  0  0  0  0  0  0  0  0  0  0  0
   92.3230   35.6770   47.2000 C   0  0  0  0  0  0  0  0  0  0  0  0
   92.0270   34.4990   46.4940 C   0  0  0  0  0  0  0  0  0  0  0  0
   91.2530   32.1910   46.3960 O   0  0  0  0  0  0  0  0  0  0  0  0
   92.6260   30.6080   49.8410 C   0  0  1  0  0  0  0  0  0  0  0  0
   92.7870   29.5070   50.6930 F   0  0  0  0  0  0  0  0  0  0  0  0
   93.8850   31.1650   49.5900 F   0  0  0  0  0  0  0  0  0  0  0  0
   91.7190   31.6550   50.4820 C   0  0  0  0  0  0  0  0  0  0  0  0
   91.6260   34.6000   49.2970 C   0  0  0  0  0  0  0  0  0  0  0  0
   90.0570   30.0470   45.9930 C   0  0  0  0  0  0  0  0  0  0  0  0
   89.5990   26.7410   43.3560 O   0  0  0  0  0  0  0  0  0  0  0  0
   89.4470   28.8240   46.4440 C   0  0  0  0  0  0  0  0  0  0  0  0
   92.4490   36.8950   49.2700 O   0  0  0  0  0  0  0  0  0  0  0  0
  1  6  1  0
  1 13  1  0
  1 14  1  0
  2  3  1  0
  2 14  1  0
  2 20  1  6
  3  4  1  6
  3  5  1  0
  4 15  1  0
  5  6  1  0
  5 18  1  1
  6 19  1  0
  7  8  1  0
  7 20  1  0
  8  9  1  0
  9 10  1  0
  9 21  1  0
 10 22  1  0
 11 12  1  0
 11 19  1  0
 11 23  1  0
 12 13  1  0
 15 16  1  1
 15 17  1  0
 15 18  1  0
 20 22  1  0
M  END
>  <PDB_ID>  (26) 
2z4b

>  <HeavyAtoms>  (26) 
23

>  <MolWt>  (26) 
330.42

>  <SMILES>  (26) 
OC1CCC([C@@H]2OC3CCC(O)CC3[C@@H]3CC(F)(F)C[C@@H]32)CC1

$$$$
2jj3
     RDKit          3D

 24 27  0  0  0  0  0  0  0  0999 V2000
   79.9690   42.6170   68.0430 C   0  0  0  0  0  0  0  0  0  0  0  0
   80.0090   42.6960   69.4310 C   0  0  0  0  0  0  0  0  0  0  0  0
   79.1100   41.9430   70.1820 C   0  0  0  0  0  0  0  0  0  0  0  0
   78.1650   41.1120   69.5730 C   0  0  0  0  0  0  0  0  0  0  0  0
   77.3310   40.4200   70.4030 O   0  0  0  0  0  0  0  0  0  0  0  0
   76.9060   39.1920   69.8100 C   0  0  2  0  0  0  0  0  0  0  0  0
   76.1480   39.4660   68.4900 C   0  0  1  0  0  0  0  0  0  0  0  0
   75.0360   40.5320   68.7030 C   0  0  0  0  0  0  0  0  0  0  0  0
   74.8590   41.1840   67.3090 C   0  0  0  0  0  0  0  0  0  0  0  0
   76.1980   41.0060   66.5620 C   0  0  0  0  0  0  0  0  0  0  0  0
   77.1220   40.1290   67.4700 C   0  0  1  0  0  0  0  0  0  0  0  0
   78.1260   41.0270   68.1880 C   0  0  0  0  0  0  0  0  0  0  0  0
   79.0280   41.7850   67.4170 C   0  0  0  0  0  0  0  0  0  0  0  0
   76.0200   38.4410   70.7970 C   0  0  0  0  0  0  0  0  0  0  0  0
   75.9830   38.8250   72.1370 C   0  0  0  0  0  0  0  0  0  0  0  0
   75.1690   38.1400   73.0420 C   0  0  0  0  0  0  0  0  0  0  0  0
   74.3910   37.0640   72.5980 C   0  0  0  0  0  0  0  0  0  0  0  0
   73.5840   36.3860   73.4700 O   0  0  0  0  0  0  0  0  0  0  0  0
   74.4280   36.6770   71.2590 C   0  0  0  0  0  0  0  0  0  0  0  0
   75.2410   37.3630   70.3600 C   0  0  0  0  0  0  0  0  0  0  0  0
   79.1470   42.0170   71.6670 C   0  0  0  0  0  0  0  0  0  0  0  0
   79.6730   40.7730   72.1350 O   0  0  0  0  0  0  0  0  0  0  0  0
   80.4590   41.0690   73.2630 C   0  0  0  0  0  0  0  0  0  0  0  0
   80.8480   43.3580   67.3100 O   0  0  0  0  0  0  0  0  0  0  0  0
  1  2  1  0
  1 13  1  0
  1 24  1  0
  2  3  1  0
  3  4  1  0
  3 21  1  0
  4  5  1  0
  4 12  1  0
  5  6  1  0
  6  7  1  0
  6 14  1  1
  7  8  1  1
  7 11  1  0
  8  9  1  0
  9 10  1  0
 11 10  1  6
 11 12  1  0
 12 13  1  0
 14 15  1  0
 14 20  1  0
 15 16  1  0
 16 17  1  0
 17 18  1  0
 17 19  1  0
 19 20  1  0
 21 22  1  0
 22 23  1  0
M  END
>  <PDB_ID>  (27) 
2jj3

>  <HeavyAtoms>  (27) 
24

>  <MolWt>  (27) 
338.49

>  <SMILES>  (27) 
COCC1CC(O)CC2C1O[C@@H](C1CCC(O)CC1)[C@H]1CCC[C@@H]21

$$$$
2jj3_lig2
     RDKit          3D

 24 27  0  0  0  0  0  0  0  0999 V2000
   92.0590   35.7210   48.8920 C   0  0  0  0  0  0  0  0  0  0  0  0
   92.0650   35.7660   47.4930 C   0  0  0  0  0  0  0  0  0  0  0  0
   91.8340   34.5910   46.7700 C   0  0  0  0  0  0  0  0  0  0  0  0
   91.6020   33.3790   47.4090 C   0  0  0  0  0  0  0  0  0  0  0  0
   91.3910   32.3010   46.6010 O   0  0  0  0  0  0  0  0  0  0  0  0
   90.5900   31.3060   47.2350 C   0  0  2  0  0  0  0  0  0  0  0  0
   91.2380   30.8260   48.5460 C   0  0  1  0  0  0  0  0  0  0  0  0
   92.7140   30.4210   48.2990 C   0  0  0  0  0  0  0  0  0  0  0  0
   93.4160   30.6690   49.6540 C   0  0  0  0  0  0  0  0  0  0  0  0
   92.5590   31.6890   50.4300 C   0  0  0  0  0  0  0  0  0  0  0  0
   91.3260   32.0240   49.5380 C   0  0  1  0  0  0  0  0  0  0  0  0
   91.5870   33.3270   48.7960 C   0  0  0  0  0  0  0  0  0  0  0  0
   91.8230   34.5020   49.5460 C   0  0  0  0  0  0  0  0  0  0  0  0
   90.3740   30.1550   46.2630 C   0  0  0  0  0  0  0  0  0  0  0  0
   90.6380   30.3420   44.9060 C   0  0  0  0  0  0  0  0  0  0  0  0
   90.4340   29.3020   44.0030 C   0  0  0  0  0  0  0  0  0  0  0  0
   89.9640   28.0690   44.4650 C   0  0  0  0  0  0  0  0  0  0  0  0
   89.7610   27.0500   43.5940 O   0  0  0  0  0  0  0  0  0  0  0  0
   89.7010   27.8760   45.8240 C   0  0  0  0  0  0  0  0  0  0  0  0
   89.9050   28.9170   46.7210 C   0  0  0  0  0  0  0  0  0  0  0  0
   91.8330   34.6100   45.2830 C   0  0  0  0  0  0  0  0  0  0  0  0
   90.4660   34.6010   44.8690 O   0  0  0  0  0  0  0  0  0  0  0  0
   90.3830   35.4870   43.7810 C   0  0  0  0  0  0  0  0  0  0  0  0
   92.2860   36.8640   49.6080 O   0  0  0  0  0  0  0  0  0  0  0  0
  1  2  1  0
  1 13  1  0
  1 24  1  0
  2  3  1  0
  3  4  1  0
  3 21  1  0
  4  5  1  0
  4 12  1  0
  5  6  1  0
  6  7  1  0
  6 14  1  6
  7  8  1  6
  7 11  1  0
  8  9  1  0
  9 10  1  0
 11 10  1  1
 11 12  1  0
 12 13  1  0
 14 15  1  0
 14 20  1  0
 15 16  1  0
 16 17  1  0
 17 18  1  0
 17 19  1  0
 19 20  1  0
 21 22  1  0
 22 23  1  0
M  END
>  <PDB_ID>  (28) 
2jj3

>  <HeavyAtoms>  (28) 
24

>  <MolWt>  (28) 
338.49

>  <SMILES>  (28) 
COCC1CC(O)CC2C1O[C@@H](C1CCC(O)CC1)[C@H]1CCC[C@@H]21

$$$$
7xvz
     RDKit          3D

 19 20  0  0  0  0  0  0  0  0999 V2000
   -5.1520   -8.2880  -38.2530 C   0  0  1  0  0  0  0  0  0  0  0  0
   -1.2350   -8.2620  -42.6180 C   0  0  0  0  0  0  0  0  0  0  0  0
   -5.3950   -7.7040  -37.0120 C   0  0  0  0  0  0  0  0  0  0  0  0
   -6.6800   -7.5900  -36.5180 C   0  0  0  0  0  0  0  0  0  0  0  0
   -0.9080   -7.3420  -40.0220 C   0  0  0  0  0  0  0  0  0  0  0  0
   -7.7440   -8.0460  -37.2810 C   0  0  0  0  0  0  0  0  0  0  0  0
   -7.5280   -8.6180  -38.5300 C   0  0  0  0  0  0  0  0  0  0  0  0
   -6.2330   -8.7130  -39.0130 C   0  0  2  0  0  0  0  0  0  0  0  0
   -2.1980   -7.5190  -40.5240 C   0  0  0  0  0  0  0  0  0  0  0  0
    0.2070   -7.6070  -40.8030 C   0  0  0  0  0  0  0  0  0  0  0  0
    0.0380   -8.0520  -42.1030 C   0  0  0  0  0  0  0  0  0  0  0  0
   -3.1300   -5.1170  -38.1380 N   0  0  0  0  0  0  0  0  0  0  0  0
   -3.7670   -8.4070  -38.8260 C   0  0  0  0  0  0  0  0  0  0  0  0
   -3.2340   -6.0310  -38.8160 C   0  0  0  0  0  0  0  0  0  0  0  0
   -3.4230   -7.2230  -39.6720 C   0  0  1  0  0  0  0  0  0  0  0  0
   -9.0100   -7.9160  -36.7620 O   0  0  0  0  0  0  0  0  0  0  0  0
   -5.9670   -9.4570  -40.5840 Cl  0  0  0  0  0  0  0  0  0  0  0  0
    1.1340   -8.2980  -42.8610 O   0  0  0  0  0  0  0  0  0  0  0  0
   -2.3380   -7.9760  -41.8310 C   0  0  0  0  0  0  0  0  0  0  0  0
  1  3  1  0
  1  8  1  0
  1 13  1  6
  2 11  1  0
  2 19  1  0
  3  4  1  0
  4  6  1  0
  5  9  1  0
  5 10  1  0
  6  7  1  0
  6 16  1  0
  7  8  1  0
  8 17  1  1
  9 15  1  0
  9 19  1  0
 10 11  1  0
 11 18  1  0
 12 14  1  0
 15 13  1  1
 14 15  1  0
M  END
>  <PDB_ID>  (29) 
7xvz

>  <HeavyAtoms>  (29) 
19

>  <MolWt>  (29) 
289.85

>  <SMILES>  (29) 
NC[C@H](C[C@H]1CCC(O)C[C@@H]1Cl)C1CCC(O)CC1

$$$$
7xvz_lig2
     RDKit          3D

 19 20  0  0  0  0  0  0  0  0999 V2000
   -1.1950  -15.4430  -10.5990 C   0  0  1  0  0  0  0  0  0  0  0  0
    3.3050  -14.1240   -6.8800 C   0  0  0  0  0  0  0  0  0  0  0  0
   -1.4800  -16.1580  -11.7670 C   0  0  0  0  0  0  0  0  0  0  0  0
   -2.7510  -16.6560  -12.0060 C   0  0  0  0  0  0  0  0  0  0  0  0
    3.3560  -15.1660   -9.4280 C   0  0  0  0  0  0  0  0  0  0  0  0
   -3.7630  -16.4320  -11.0880 C   0  0  0  0  0  0  0  0  0  0  0  0
   -3.5090  -15.7360   -9.9170 C   0  0  0  0  0  0  0  0  0  0  0  0
   -2.2300  -15.2590   -9.6880 C   0  0  0  0  0  0  0  0  0  0  0  0
    2.1800  -15.2640   -8.7000 C   0  0  0  0  0  0  0  0  0  0  0  0
    4.4880  -14.5570   -8.9060 C   0  0  0  0  0  0  0  0  0  0  0  0
    4.4730  -14.0450   -7.6210 C   0  0  0  0  0  0  0  0  0  0  0  0
    1.2720  -18.1290  -10.5500 N   0  0  0  0  0  0  0  0  0  0  0  0
    0.1850  -14.9350  -10.2530 C   0  0  0  0  0  0  0  0  0  0  0  0
    1.1400  -17.1500   -9.9880 C   0  0  0  0  0  0  0  0  0  0  0  0
    0.9070  -15.8780   -9.2830 C   0  0  1  0  0  0  0  0  0  0  0  0
   -5.0250  -16.9110  -11.3370 O   0  0  0  0  0  0  0  0  0  0  0  0
   -1.9440  -14.3620   -8.2300 Cl  0  0  0  0  0  0  0  0  0  0  0  0
    5.6070  -13.4830   -7.0900 O   0  0  0  0  0  0  0  0  0  0  0  0
    2.1840  -14.7360   -7.4180 C   0  0  0  0  0  0  0  0  0  0  0  0
  1  3  1  0
  1  8  1  0
  1 13  1  1
  2 11  1  0
  2 19  1  0
  3  4  1  0
  4  6  1  0
  5  9  1  0
  5 10  1  0
  6  7  1  0
  6 16  1  0
  7  8  1  0
  8 17  1  0
  9 15  1  0
  9 19  1  0
 10 11  1  0
 11 18  1  0
 12 14  1  0
 15 13  1  6
 14 15  1  0
M  END
>  <PDB_ID>  (30) 
7xvz

>  <HeavyAtoms>  (30) 
19

>  <MolWt>  (30) 
289.85

>  <SMILES>  (30) 
NC[C@H](C[C@H]1CCC(O)CC1Cl)C1CCC(O)CC1

$$$$
1yy4
     RDKit          3D

 19 21  0  0  0  0  0  0  0  0999 V2000
   33.4230   36.2570   36.5760 C   0  0  0  0  0  0  0  0  0  0  0  0
   32.1680   36.8970   36.2850 C   0  0  0  0  0  0  0  0  0  0  0  0
   31.0180   36.6980   37.1690 C   0  0  0  0  0  0  0  0  0  0  0  0
   31.1960   35.8510   38.3850 C   0  0  0  0  0  0  0  0  0  0  0  0
   32.4550   35.2390   38.6280 C   0  0  0  0  0  0  0  0  0  0  0  0
   33.5550   35.4460   37.7440 C   0  0  0  0  0  0  0  0  0  0  0  0
   29.7320   37.3100   36.9460 C   0  0  0  0  0  0  0  0  0  0  0  0
   28.6550   37.0780   37.8610 C   0  0  0  0  0  0  0  0  0  0  0  0
   28.8040   36.2480   39.0450 C   0  0  0  0  0  0  0  0  0  0  0  0
   30.0970   35.6320   39.2830 C   0  0  0  0  0  0  0  0  0  0  0  0
   27.6250   36.0470   39.9980 C   0  0  0  0  0  0  0  0  0  0  0  0
   26.2660   36.1390   39.5170 C   0  0  0  0  0  0  0  0  0  0  0  0
   25.1600   35.9670   40.4020 C   0  0  0  0  0  0  0  0  0  0  0  0
   25.3940   35.7010   41.7850 C   0  0  0  0  0  0  0  0  0  0  0  0
   26.7260   35.6040   42.2980 C   0  0  0  0  0  0  0  0  0  0  0  0
   27.8340   35.7770   41.4080 C   0  0  0  0  0  0  0  0  0  0  0  0
   24.3080   35.5370   42.6310 O   0  0  0  0  0  0  0  0  0  0  0  0
   32.1100   37.8660   34.8330 Cl  0  0  0  0  0  0  0  0  0  0  0  0
   34.5470   36.4020   35.7720 O   0  0  0  0  0  0  0  0  0  0  0  0
  1  2  1  0
  1  6  1  0
  1 19  1  0
  2  3  1  0
  2 18  1  0
  3  4  1  0
  3  7  1  0
  4  5  1  0
  4 10  1  0
  5  6  1  0
  7  8  1  0
  8  9  1  0
  9 10  1  0
  9 11  1  0
 11 12  1  0
 11 16  1  0
 12 13  1  0
 13 14  1  0
 14 15  1  0
 14 17  1  0
 15 16  1  0
M  END
>  <PDB_ID>  (31) 
1yy4

>  <HeavyAtoms>  (31) 
19

>  <MolWt>  (31) 
286.84

>  <SMILES>  (31) 
OC1CCC(C2CCC3C(CCC(O)C3Cl)C2)CC1

$$$$
1yy4_lig2
     RDKit          3D

 19 21  0  0  0  0  0  0  0  0999 V2000
   29.4970   27.4210   11.2390 C   0  0  0  0  0  0  0  0  0  0  0  0
   28.1900   27.1730   11.7930 C   0  0  0  0  0  0  0  0  0  0  0  0
   26.9930   27.6270   11.1070 C   0  0  0  0  0  0  0  0  0  0  0  0
   27.1610   28.3380    9.8100 C   0  0  0  0  0  0  0  0  0  0  0  0
   28.4750   28.5620    9.2950 C   0  0  0  0  0  0  0  0  0  0  0  0
   29.6250   28.1040   10.0000 C   0  0  0  0  0  0  0  0  0  0  0  0
   25.6550   27.4160   11.5990 C   0  0  0  0  0  0  0  0  0  0  0  0
   24.5280   27.8950   10.8560 C   0  0  0  0  0  0  0  0  0  0  0  0
   24.6720   28.5940    9.5950 C   0  0  0  0  0  0  0  0  0  0  0  0
   26.0130   28.8070    9.0910 C   0  0  0  0  0  0  0  0  0  0  0  0
   23.4390   29.0900    8.8250 C   0  0  0  0  0  0  0  0  0  0  0  0
   22.1510   29.2350    9.4890 C   0  0  0  0  0  0  0  0  0  0  0  0
   20.9980   29.6940    8.7770 C   0  0  0  0  0  0  0  0  0  0  0  0
   21.1130   30.0150    7.3930 C   0  0  0  0  0  0  0  0  0  0  0  0
   22.3670   29.8850    6.7100 C   0  0  0  0  0  0  0  0  0  0  0  0
   23.5200   29.4260    7.4200 C   0  0  0  0  0  0  0  0  0  0  0  0
   19.9940   30.4570    6.7030 O   0  0  0  0  0  0  0  0  0  0  0  0
   28.1410   26.3580   13.2640 Cl  0  0  0  0  0  0  0  0  0  0  0  0
   30.6730   27.0300   11.8340 O   0  0  0  0  0  0  0  0  0  0  0  0
  1  2  1  0
  1  6  1  0
  1 19  1  0
  2  3  1  0
  2 18  1  0
  3  4  1  0
  3  7  1  0
  4  5  1  0
  4 10  1  0
  5  6  1  0
  7  8  1  0
  8  9  1  0
  9 10  1  0
  9 11  1  0
 11 12  1  0
 11 16  1  0
 12 13  1  0
 13 14  1  0
 14 15  1  0
 14 17  1  0
 15 16  1  0
M  END
>  <PDB_ID>  (32) 
1yy4

>  <HeavyAtoms>  (32) 
19

>  <MolWt>  (32) 
286.84

>  <SMILES>  (32) 
OC1CCC(C2CCC3C(CCC(O)C3Cl)C2)CC1

$$$$
1u9e
     RDKit          3D

 17 19  0  0  0  0  0  0  0  0999 V2000
   32.1100   36.9260   35.3650 C   0  0  0  0  0  0  0  0  0  0  0  0
   30.7430   37.0510   35.7400 C   0  0  0  0  0  0  0  0  0  0  0  0
   30.3120   36.6340   37.0060 C   0  0  0  0  0  0  0  0  0  0  0  0
   31.2720   36.0610   37.9350 C   0  0  0  0  0  0  0  0  0  0  0  0
   32.6150   35.9410   37.5620 C   0  0  0  0  0  0  0  0  0  0  0  0
   33.0410   36.3680   36.2770 C   0  0  0  0  0  0  0  0  0  0  0  0
   29.0750   36.6560   37.5800 O   0  0  0  0  0  0  0  0  0  0  0  0
   29.2140   36.1310   38.8260 C   0  0  0  0  0  0  0  0  0  0  0  0
   30.5640   35.7210   39.1540 C   0  0  0  0  0  0  0  0  0  0  0  0
   28.0660   36.0510   39.6530 C   0  0  0  0  0  0  0  0  0  0  0  0
   26.7520   36.4000   39.1600 C   0  0  0  0  0  0  0  0  0  0  0  0
   25.5980   36.3370   39.9750 C   0  0  0  0  0  0  0  0  0  0  0  0
   25.7070   35.9250   41.3200 C   0  0  0  0  0  0  0  0  0  0  0  0
   26.9710   35.5720   41.8530 C   0  0  0  0  0  0  0  0  0  0  0  0
   28.1220   35.6360   41.0390 C   0  0  0  0  0  0  0  0  0  0  0  0
   34.3640   36.2420   35.9250 O   0  0  0  0  0  0  0  0  0  0  0  0
   24.5770   35.8710   42.0960 O   0  0  0  0  0  0  0  0  0  0  0  0
  1  2  1  0
  1  6  1  0
  2  3  1  0
  3  4  1  0
  3  7  1  0
  4  5  1  0
  4  9  1  0
  5  6  1  0
  6 16  1  0
  7  8  1  0
  8  9  1  0
  8 10  1  0
 10 11  1  0
 10 15  1  0
 11 12  1  0
 12 13  1  0
 13 14  1  0
 13 17  1  0
 14 15  1  0
M  END
>  <PDB_ID>  (33) 
1u9e

>  <HeavyAtoms>  (33) 
17

>  <MolWt>  (33) 
240.34

>  <SMILES>  (33) 
OC1CCC(C2CC3CC(O)CCC3O2)CC1

$$$$
1u9e_lig2
     RDKit          3D

 17 19  0  0  0  0  0  0  0  0999 V2000
   28.2260   27.2660   12.2820 C   0  0  0  0  0  0  0  0  0  0  0  0
   26.8250   27.4380   12.1080 C   0  0  0  0  0  0  0  0  0  0  0  0
   26.3190   28.0500   10.9500 C   0  0  0  0  0  0  0  0  0  0  0  0
   27.2360   28.4810    9.9100 C   0  0  0  0  0  0  0  0  0  0  0  0
   28.6150   28.3150   10.0840 C   0  0  0  0  0  0  0  0  0  0  0  0
   29.1180   27.6990   11.2620 C   0  0  0  0  0  0  0  0  0  0  0  0
   25.0380   28.3160   10.5630 O   0  0  0  0  0  0  0  0  0  0  0  0
   25.1110   28.9070    9.3480 C   0  0  0  0  0  0  0  0  0  0  0  0
   26.4510   29.0660    8.8400 C   0  0  0  0  0  0  0  0  0  0  0  0
   23.9040   29.2890    8.7160 C   0  0  0  0  0  0  0  0  0  0  0  0
   22.6350   29.2190    9.4040 C   0  0  0  0  0  0  0  0  0  0  0  0
   21.4170   29.5870    8.7920 C   0  0  0  0  0  0  0  0  0  0  0  0
   21.4110   30.0390    7.4590 C   0  0  0  0  0  0  0  0  0  0  0  0
   22.6270   30.1300    6.7380 C   0  0  0  0  0  0  0  0  0  0  0  0
   23.8470   29.7610    7.3520 C   0  0  0  0  0  0  0  0  0  0  0  0
   30.4740   27.5400   11.4100 O   0  0  0  0  0  0  0  0  0  0  0  0
   20.2200   30.3900    6.8750 O   0  0  0  0  0  0  0  0  0  0  0  0
  1  2  1  0
  1  6  1  0
  2  3  1  0
  3  4  1  0
  3  7  1  0
  4  5  1  0
  4  9  1  0
  5  6  1  0
  6 16  1  0
  7  8  1  0
  8  9  1  0
  8 10  1  0
 10 11  1  0
 10 15  1  0
 11 12  1  0
 12 13  1  0
 13 14  1  0
 13 17  1  0
 14 15  1  0
M  END
>  <PDB_ID>  (34) 
1u9e

>  <HeavyAtoms>  (34) 
17

>  <MolWt>  (34) 
240.34

>  <SMILES>  (34) 
OC1CCC(C2CC3CC(O)CCC3O2)CC1

$$$$
2fsz
     RDKit          3D

 29 31  0  0  0  0  0  0  0  0999 V2000
   89.6910   19.2370   -4.3800 C   0  0  0  0  0  0  0  0  0  0  0  0
   90.8600   18.8850   -5.3160 C   0  0  0  0  0  0  0  0  0  0  0  0
   92.2720   19.2380   -4.7570 C   0  0  0  0  0  0  0  0  0  0  0  0
   92.7730   18.0360   -3.9710 C   0  0  0  0  0  0  0  0  0  0  0  0
   92.8320   18.1300   -2.4980 C   0  0  0  0  0  0  0  0  0  0  0  0
   93.2920   17.0110   -1.7020 C   0  0  0  0  0  0  0  0  0  0  0  0
   93.6950   15.7920   -2.3760 C   0  0  0  0  0  0  0  0  0  0  0  0
   93.6490   15.6680   -3.8290 C   0  0  0  0  0  0  0  0  0  0  0  0
   93.1880   16.7920   -4.6410 C   0  0  0  0  0  0  0  0  0  0  0  0
   93.0120   20.4990   -4.9110 C   0  0  0  0  0  0  0  0  0  0  0  0
   92.5340   21.8270   -5.6290 C   0  0  0  0  0  0  0  0  0  0  0  0
   91.3280   22.5500   -5.2170 C   0  0  0  0  0  0  0  0  0  0  0  0
   90.8880   23.7710   -5.8200 C   0  0  0  0  0  0  0  0  0  0  0  0
   91.6690   24.3250   -6.8820 C   0  0  0  0  0  0  0  0  0  0  0  0
   91.2640   25.4910   -7.4560 O   0  0  0  0  0  0  0  0  0  0  0  0
   92.8740   23.6790   -7.3610 C   0  0  0  0  0  0  0  0  0  0  0  0
   93.2970   22.4480   -6.7360 C   0  0  0  0  0  0  0  0  0  0  0  0
   94.4400   20.5940   -4.3110 C   0  0  0  0  0  0  0  0  0  0  0  0
   94.7010   21.4750   -3.1540 C   0  0  0  0  0  0  0  0  0  0  0  0
   96.0320   21.5500   -2.5880 C   0  0  0  0  0  0  0  0  0  0  0  0
   97.1290   20.7390   -3.1710 C   0  0  0  0  0  0  0  0  0  0  0  0
   98.4540   20.7210   -2.6800 O   0  0  0  0  0  0  0  0  0  0  0  0
   99.4570   21.5750   -3.2030 C   0  0  0  0  0  0  0  0  0  0  0  0
  100.7040   21.5400   -2.3110 C   0  0  0  0  0  0  0  0  0  0  0  0
  101.0410   22.9250   -1.9320 N   0  0  0  0  0  0  0  0  0  0  0  0
  102.5000   23.0940   -1.9470 C   0  0  0  0  0  0  0  0  0  0  0  0
  100.5650   23.2800   -0.5870 C   0  0  0  0  0  0  0  0  0  0  0  0
   96.8760   19.8880   -4.2990 C   0  0  0  0  0  0  0  0  0  0  0  0
   95.5500   19.8080   -4.8700 C   0  0  0  0  0  0  0  0  0  0  0  0
  1  2  1  0
  2  3  1  0
  3  4  1  0
  3 10  1  0
  4  5  1  0
  4  9  1  0
  5  6  1  0
  6  7  1  0
  7  8  1  0
  8  9  1  0
 10 11  1  0
 10 18  1  0
 11 12  1  0
 11 17  1  0
 12 13  1  0
 13 14  1  0
 14 15  1  0
 14 16  1  0
 16 17  1  0
 18 19  1  0
 18 29  1  0
 19 20  1  0
 20 21  1  0
 21 22  1  0
 21 28  1  0
 22 23  1  0
 23 24  1  0
 24 25  1  0
 25 26  1  0
 25 27  1  0
 28 29  1  0
M  END
>  <PDB_ID>  (35) 
2fsz

>  <HeavyAtoms>  (35) 
29

>  <MolWt>  (35) 
407.68

>  <SMILES>  (35) 
CCC(C1CCCCC1)C(C1CCC(O)CC1)C1CCC(OCCN(C)C)CC1

$$$$
2fsz_lig2
     RDKit          3D

 29 31  0  0  0  0  0  0  0  0999 V2000
  100.9880   26.7680    2.4760 C   0  0  0  0  0  0  0  0  0  0  0  0
  100.2150   27.6790    3.4540 C   0  0  0  0  0  0  0  0  0  0  0  0
  100.6400   29.1850    3.4290 C   0  0  0  0  0  0  0  0  0  0  0  0
   99.9480   29.8670    2.2540 C   0  0  0  0  0  0  0  0  0  0  0  0
  100.7390   30.3550    1.1120 C   0  0  0  0  0  0  0  0  0  0  0  0
  100.0860   31.0140   -0.0030 C   0  0  0  0  0  0  0  0  0  0  0  0
   98.6470   31.1850    0.0220 C   0  0  0  0  0  0  0  0  0  0  0  0
   97.8480   30.7150    1.1260 C   0  0  0  0  0  0  0  0  0  0  0  0
   98.4900   30.0560    2.2510 C   0  0  0  0  0  0  0  0  0  0  0  0
  101.5600   29.8650    4.3640 C   0  0  0  0  0  0  0  0  0  0  0  0
  102.3350   29.1770    5.5830 C   0  0  0  0  0  0  0  0  0  0  0  0
  103.0810   27.9210    5.4560 C   0  0  0  0  0  0  0  0  0  0  0  0
  103.7790   27.2930    6.5510 C   0  0  0  0  0  0  0  0  0  0  0  0
  103.7470   27.9310    7.8410 C   0  0  0  0  0  0  0  0  0  0  0  0
  104.4030   27.3420    8.8870 O   0  0  0  0  0  0  0  0  0  0  0  0
  103.0420   29.1710    8.0570 C   0  0  0  0  0  0  0  0  0  0  0  0
  102.3490   29.7790    6.9430 C   0  0  0  0  0  0  0  0  0  0  0  0
  101.8030   31.3940    4.1730 C   0  0  0  0  0  0  0  0  0  0  0  0
  103.1200   31.9050    3.7360 C   0  0  0  0  0  0  0  0  0  0  0  0
  103.3220   33.3290    3.5500 C   0  0  0  0  0  0  0  0  0  0  0  0
  102.1960   34.2690    3.8000 C   0  0  0  0  0  0  0  0  0  0  0  0
  102.2330   35.6820    3.6550 O   0  0  0  0  0  0  0  0  0  0  0  0
  103.4470   36.4210    3.8080 C   0  0  0  0  0  0  0  0  0  0  0  0
  103.2330   37.7300    4.6280 C   0  0  0  0  0  0  0  0  0  0  0  0
  102.5720   38.8340    3.8440 N   0  0  0  0  0  0  0  0  0  0  0  0
  101.1860   38.4990    3.4330 C   0  0  0  0  0  0  0  0  0  0  0  0
  103.3120   39.2350    2.6280 C   0  0  0  0  0  0  0  0  0  0  0  0
  100.9280   33.7630    4.2250 C   0  0  0  0  0  0  0  0  0  0  0  0
  100.7230   32.3530    4.4120 C   0  0  0  0  0  0  0  0  0  0  0  0
  1  2  1  0
  2  3  1  0
  3  4  1  0
  3 10  1  0
  4  5  1  0
  4  9  1  0
  5  6  1  0
  6  7  1  0
  7  8  1  0
  8  9  1  0
 10 11  1  0
 10 18  1  0
 11 12  1  0
 11 17  1  0
 12 13  1  0
 13 14  1  0
 14 15  1  0
 14 16  1  0
 16 17  1  0
 18 19  1  0
 18 29  1  0
 19 20  1  0
 20 21  1  0
 21 22  1  0
 21 28  1  0
 22 23  1  0
 23 24  1  0
 24 25  1  0
 25 26  1  0
 25 27  1  0
 28 29  1  0
M  END
>  <PDB_ID>  (36) 
2fsz

>  <HeavyAtoms>  (36) 
29

>  <MolWt>  (36) 
407.68

>  <SMILES>  (36) 
CCC(C1CCCCC1)C(C1CCC(O)CC1)C1CCC(OCCN(C)C)CC1

$$$$
2fsz_lig3
     RDKit          3D

 29 31  0  0  0  0  0  0  0  0999 V2000
   87.1610   16.7410   23.0000 C   0  0  0  0  0  0  0  0  0  0  0  0
   87.2290   15.6600   24.0950 C   0  0  0  0  0  0  0  0  0  0  0  0
   86.8560   14.2130   23.6180 C   0  0  0  0  0  0  0  0  0  0  0  0
   88.0580   13.6600   22.8600 C   0  0  0  0  0  0  0  0  0  0  0  0
   87.9500   13.4480   21.4110 C   0  0  0  0  0  0  0  0  0  0  0  0
   89.0710   12.9310   20.6550 C   0  0  0  0  0  0  0  0  0  0  0  0
   90.3070   12.6280   21.3460 C   0  0  0  0  0  0  0  0  0  0  0  0
   90.4480   12.8290   22.7770 C   0  0  0  0  0  0  0  0  0  0  0  0
   89.3220   13.3470   23.5460 C   0  0  0  0  0  0  0  0  0  0  0  0
   85.5760   13.4980   23.8390 C   0  0  0  0  0  0  0  0  0  0  0  0
   84.2660   14.0660   24.5470 C   0  0  0  0  0  0  0  0  0  0  0  0
   83.6940   15.3610   24.1730 C   0  0  0  0  0  0  0  0  0  0  0  0
   82.5020   15.9070   24.7590 C   0  0  0  0  0  0  0  0  0  0  0  0
   81.8280   15.1480   25.7600 C   0  0  0  0  0  0  0  0  0  0  0  0
   80.7100   15.6700   26.2900 O   0  0  0  0  0  0  0  0  0  0  0  0
   82.3110   13.8460   26.2100 C   0  0  0  0  0  0  0  0  0  0  0  0
   83.5180   13.3120   25.6060 C   0  0  0  0  0  0  0  0  0  0  0  0
   85.4150   12.0520   23.3210 C   0  0  0  0  0  0  0  0  0  0  0  0
   84.4680   11.7790   22.2280 C   0  0  0  0  0  0  0  0  0  0  0  0
   84.3090   10.4440   21.7230 C   0  0  0  0  0  0  0  0  0  0  0  0
   85.1060    9.3440   22.3140 C   0  0  0  0  0  0  0  0  0  0  0  0
   85.0470    8.0110   21.9020 O   0  0  0  0  0  0  0  0  0  0  0  0
   83.8470    7.2670   22.0950 C   0  0  0  0  0  0  0  0  0  0  0  0
   83.8370    5.9970   21.2250 C   0  0  0  0  0  0  0  0  0  0  0  0
   82.4420    5.5620   21.0210 N   0  0  0  0  0  0  0  0  0  0  0  0
   82.4290    4.1310   20.6880 C   0  0  0  0  0  0  0  0  0  0  0  0
   81.7710    6.2760   19.9220 C   0  0  0  0  0  0  0  0  0  0  0  0
   86.0210    9.6050   23.3770 C   0  0  0  0  0  0  0  0  0  0  0  0
   86.1830   10.9420   23.8860 C   0  0  0  0  0  0  0  0  0  0  0  0
  1  2  1  0
  2  3  1  0
  3  4  1  0
  3 10  1  0
  4  5  1  0
  4  9  1  0
  5  6  1  0
  6  7  1  0
  7  8  1  0
  8  9  1  0
 10 11  1  0
 10 18  1  0
 11 12  1  0
 11 17  1  0
 12 13  1  0
 13 14  1  0
 14 15  1  0
 14 16  1  0
 16 17  1  0
 18 19  1  0
 18 29  1  0
 19 20  1  0
 20 21  1  0
 21 22  1  0
 21 28  1  0
 22 23  1  0
 23 24  1  0
 24 25  1  0
 25 26  1  0
 25 27  1  0
 28 29  1  0
M  END
>  <PDB_ID>  (37) 
2fsz

>  <HeavyAtoms>  (37) 
29

>  <MolWt>  (37) 
407.68

>  <SMILES>  (37) 
CCC(C1CCCCC1)C(C1CCC(O)CC1)C1CCC(OCCN(C)C)CC1

$$$$
2fsz_lig4
     RDKit          3D

 29 31  0  0  0  0  0  0  0  0999 V2000
   79.1420    5.8080   16.6580 C   0  0  0  0  0  0  0  0  0  0  0  0
   78.3060    6.6380   15.6640 C   0  0  0  0  0  0  0  0  0  0  0  0
   76.7880    6.2760   15.6270 C   0  0  0  0  0  0  0  0  0  0  0  0
   76.0880    7.0590   16.7320 C   0  0  0  0  0  0  0  0  0  0  0  0
   75.6970    6.3890   17.9780 C   0  0  0  0  0  0  0  0  0  0  0  0
   75.0320    7.1310   19.0340 C   0  0  0  0  0  0  0  0  0  0  0  0
   74.7570    8.5410   18.8430 C   0  0  0  0  0  0  0  0  0  0  0  0
   75.1330    9.2260   17.6210 C   0  0  0  0  0  0  0  0  0  0  0  0
   75.7990    8.4900   16.5620 C   0  0  0  0  0  0  0  0  0  0  0  0
   76.1230    5.3420   14.7020 C   0  0  0  0  0  0  0  0  0  0  0  0
   76.8280    4.4750   13.5590 C   0  0  0  0  0  0  0  0  0  0  0  0
   78.0070    3.6300   13.8050 C   0  0  0  0  0  0  0  0  0  0  0  0
   78.6540    2.8400   12.7850 C   0  0  0  0  0  0  0  0  0  0  0  0
   78.1180    2.8750   11.4520 C   0  0  0  0  0  0  0  0  0  0  0  0
   78.7260    2.1270   10.4820 O   0  0  0  0  0  0  0  0  0  0  0  0
   76.9550    3.6790   11.1140 C   0  0  0  0  0  0  0  0  0  0  0  0
   76.3250    4.4640   12.1550 C   0  0  0  0  0  0  0  0  0  0  0  0
   74.5900    5.1670   14.8230 C   0  0  0  0  0  0  0  0  0  0  0  0
   74.0160    3.9160   15.3650 C   0  0  0  0  0  0  0  0  0  0  0  0
   72.5780    3.7740   15.4850 C   0  0  0  0  0  0  0  0  0  0  0  0
   71.7010    4.8990   15.0600 C   0  0  0  0  0  0  0  0  0  0  0  0
   70.2940    4.9370   15.1160 O   0  0  0  0  0  0  0  0  0  0  0  0
   69.4940    3.7690   15.2280 C   0  0  0  0  0  0  0  0  0  0  0  0
   68.1380    3.9540   14.4870 C   0  0  0  0  0  0  0  0  0  0  0  0
   67.2540    5.0600   15.0230 N   0  0  0  0  0  0  0  0  0  0  0  0
   67.7610    5.7800   16.2200 C   0  0  0  0  0  0  0  0  0  0  0  0
   65.9120    4.5640   15.3680 C   0  0  0  0  0  0  0  0  0  0  0  0
   72.2740    6.0980   14.5360 C   0  0  0  0  0  0  0  0  0  0  0  0
   73.6940    6.2400   14.4140 C   0  0  0  0  0  0  0  0  0  0  0  0
  1  2  1  0
  2  3  1  0
  3  4  1  0
  3 10  1  0
  4  5  1  0
  4  9  1  0
  5  6  1  0
  6  7  1  0
  7  8  1  0
  8  9  1  0
 10 11  1  0
 10 18  1  0
 11 12  1  0
 11 17  1  0
 12 13  1  0
 13 14  1  0
 14 15  1  0
 14 16  1  0
 16 17  1  0
 18 19  1  0
 18 29  1  0
 19 20  1  0
 20 21  1  0
 21 22  1  0
 21 28  1  0
 22 23  1  0
 23 24  1  0
 24 25  1  0
 25 26  1  0
 25 27  1  0
 28 29  1  0
M  END
>  <PDB_ID>  (38) 
2fsz

>  <HeavyAtoms>  (38) 
29

>  <MolWt>  (38) 
407.68

>  <SMILES>  (38) 
CCC(C1CCCCC1)C(C1CCC(O)CC1)C1CCC(OCCN(C)C)CC1

$$$$
5toa
     RDKit          3D

 20 23  0  0  0  0  0  0  0  0999 V2000
   18.5130   43.6660   12.8360 C   0  0  0  0  0  0  0  0  0  0  0  0
   18.0190   42.8710   11.8060 C   0  0  0  0  0  0  0  0  0  0  0  0
   18.2700   41.5010   11.7640 C   0  0  0  0  0  0  0  0  0  0  0  0
   17.7710   40.7530   10.7420 O   0  0  0  0  0  0  0  0  0  0  0  0
   19.0270   40.8860   12.7540 C   0  0  0  0  0  0  0  0  0  0  0  0
   19.5430   41.6330   13.8050 C   0  0  0  0  0  0  0  0  0  0  0  0
   20.3650   40.9470   14.8730 C   0  0  0  0  0  0  0  0  0  0  0  0
   21.1940   41.9700   15.6370 C   0  0  0  0  0  0  0  0  0  0  0  0
   20.2940   43.0950   16.1160 C   0  0  2  0  0  0  0  0  0  0  0  0
   19.8100   43.9410   14.9460 C   0  0  1  0  0  0  0  0  0  0  0  0
   19.2700   43.0950   13.8520 C   0  0  0  0  0  0  0  0  0  0  0  0
   18.8170   45.0010   15.4340 C   0  0  0  0  0  0  0  0  0  0  0  0
   19.4570   45.9100   16.4900 C   0  0  0  0  0  0  0  0  0  0  0  0
   20.0460   45.0700   17.6160 C   0  0  1  0  0  0  0  0  0  0  0  0
   21.0140   44.0590   17.0400 C   0  0  1  0  0  0  0  0  0  0  0  0
   21.7540   43.4980   18.2440 C   0  0  0  0  0  0  0  0  0  0  0  0
   21.8060   44.6820   19.2130 C   0  0  0  0  0  0  0  0  0  0  0  0
   20.9290   45.7880   18.6200 C   0  0  2  0  0  0  0  0  0  0  0  0
   20.1510   46.4180   19.6400 O   0  0  0  0  0  0  0  0  0  0  0  0
   18.9250   44.3680   18.3770 C   0  0  0  0  0  0  0  0  0  0  0  0
  1  2  1  0
  1 11  1  0
  2  3  1  0
  3  4  1  0
  3  5  1  0
  5  6  1  0
  6  7  1  0
  6 11  1  0
  7  8  1  0
  9  8  1  6
  9 10  1  0
  9 15  1  0
 10 11  1  0
 10 12  1  1
 12 13  1  0
 13 14  1  0
 14 15  1  0
 14 18  1  0
 14 20  1  1
 15 16  1  1
 16 17  1  0
 17 18  1  0
 18 19  1  1
M  END
>  <PDB_ID>  (39) 
5toa

>  <HeavyAtoms>  (39) 
20

>  <MolWt>  (39) 
278.44

>  <SMILES>  (39) 
C[C@]12CC[C@@H]3C4CCC(O)CC4CC[C@H]3[C@@H]1CC[C@@H]2O

$$$$
5toa_lig2
     RDKit          3D

 20 23  0  0  0  0  0  0  0  0999 V2000
   19.2790   31.6230   44.8650 C   0  0  0  0  0  0  0  0  0  0  0  0
   19.7060   30.3190   45.0950 C   0  0  0  0  0  0  0  0  0  0  0  0
   19.3690   29.2850   44.2260 C   0  0  0  0  0  0  0  0  0  0  0  0
   19.8050   28.0210   44.4850 O   0  0  0  0  0  0  0  0  0  0  0  0
   18.5920   29.5270   43.0970 C   0  0  0  0  0  0  0  0  0  0  0  0
   18.1400   30.8120   42.8200 C   0  0  0  0  0  0  0  0  0  0  0  0
   17.2960   31.0650   41.5890 C   0  0  0  0  0  0  0  0  0  0  0  0
   16.5910   32.4140   41.6790 C   0  0  0  0  0  0  0  0  0  0  0  0
   17.5730   33.5050   42.0740 C   0  0  2  0  0  0  0  0  0  0  0  0
   18.0440   33.3030   43.5090 C   0  0  1  0  0  0  0  0  0  0  0  0
   18.5060   31.9140   43.7480 C   0  0  0  0  0  0  0  0  0  0  0  0
   19.1100   34.3370   43.8770 C   0  0  0  0  0  0  0  0  0  0  0  0
   18.5460   35.7550   43.7540 C   0  0  0  0  0  0  0  0  0  0  0  0
   17.9750   35.9620   42.3580 C   0  0  1  0  0  0  0  0  0  0  0  0
   16.9510   34.8910   42.0430 C   0  0  1  0  0  0  0  0  0  0  0  0
   16.2890   35.3760   40.7600 C   0  0  0  0  0  0  0  0  0  0  0  0
   16.3260   36.9030   40.8960 C   0  0  0  0  0  0  0  0  0  0  0  0
   17.1670   37.2240   42.1330 C   0  0  2  0  0  0  0  0  0  0  0  0
   18.0180   38.3500   41.9020 O   0  0  0  0  0  0  0  0  0  0  0  0
   19.0980   35.9390   41.3300 C   0  0  0  0  0  0  0  0  0  0  0  0
  1  2  1  0
  1 11  1  0
  2  3  1  0
  3  4  1  0
  3  5  1  0
  5  6  1  0
  6  7  1  0
  6 11  1  0
  7  8  1  0
  9  8  1  1
  9 10  1  0
  9 15  1  0
 10 11  1  0
 10 12  1  6
 12 13  1  0
 13 14  1  0
 14 15  1  0
 14 18  1  0
 14 20  1  6
 15 16  1  6
 16 17  1  0
 17 18  1  0
 18 19  1  6
M  END
>  <PDB_ID>  (40) 
5toa

>  <HeavyAtoms>  (40) 
20

>  <MolWt>  (40) 
278.44

>  <SMILES>  (40) 
C[C@]12CC[C@@H]3C4CCC(O)CC4CC[C@H]3[C@@H]1CC[C@@H]2O

$$$$
1yye
     RDKit          3D

 21 23  0  0  0  0  0  0  0  0999 V2000
   26.2360   36.2130   41.8980 C   0  0  0  0  0  0  0  0  0  0  0  0
   26.1850   36.5960   40.5190 C   0  0  0  0  0  0  0  0  0  0  0  0
   27.3570   36.6940   39.7290 C   0  0  0  0  0  0  0  0  0  0  0  0
   28.6380   36.4010   40.3130 C   0  0  0  0  0  0  0  0  0  0  0  0
   28.6880   36.0150   41.7110 C   0  0  0  0  0  0  0  0  0  0  0  0
   27.5000   35.9160   42.5040 C   0  0  0  0  0  0  0  0  0  0  0  0
   25.0840   36.1150   42.6680 O   0  0  0  0  0  0  0  0  0  0  0  0
   24.9920   36.8690   39.9840 F   0  0  0  0  0  0  0  0  0  0  0  0
   29.9010   36.5060   39.4650 C   0  0  0  0  0  0  0  0  0  0  0  0
   31.1260   35.8350   39.8240 C   0  0  0  0  0  0  0  0  0  0  0  0
   32.3060   35.9350   39.0280 C   0  0  0  0  0  0  0  0  0  0  0  0
   32.2740   36.7940   37.8050 C   0  0  0  0  0  0  0  0  0  0  0  0
   31.0360   37.4590   37.4330 C   0  0  0  0  0  0  0  0  0  0  0  0
   29.8930   37.3150   38.2720 C   0  0  0  0  0  0  0  0  0  0  0  0
   33.5020   35.2620   39.4230 C   0  0  0  0  0  0  0  0  0  0  0  0
   34.6740   35.3910   38.6130 C   0  0  0  0  0  0  0  0  0  0  0  0
   34.6630   36.1980   37.4270 C   0  0  0  0  0  0  0  0  0  0  0  0
   33.4820   36.8830   37.0130 C   0  0  0  0  0  0  0  0  0  0  0  0
   30.8940   38.2980   36.2690 C   0  0  0  0  0  0  0  0  0  0  0  0
   30.7900   38.9480   35.3170 N   0  0  0  0  0  0  0  0  0  0  0  0
   35.8180   36.3020   36.6720 O   0  0  0  0  0  0  0  0  0  0  0  0
  1  2  1  0
  1  6  1  0
  1  7  1  0
  2  3  1  0
  2  8  1  0
  3  4  1  0
  4  5  1  0
  4  9  1  0
  5  6  1  0
  9 10  1  0
  9 14  1  0
 10 11  1  0
 11 12  1  0
 11 15  1  0
 12 13  1  0
 12 18  1  0
 13 14  1  0
 13 19  1  0
 15 16  1  0
 16 17  1  0
 17 18  1  0
 17 21  1  0
 19 20  1  0
M  END
>  <PDB_ID>  (41) 
1yye

>  <HeavyAtoms>  (41) 
21

>  <MolWt>  (41) 
299.43

>  <SMILES>  (41) 
NCC1CC(C2CCC(O)C(F)C2)CC2CCC(O)CC12

$$$$
1yye_lig2
     RDKit          3D

 21 23  0  0  0  0  0  0  0  0999 V2000
   21.4120   30.1890    7.4160 C   0  0  0  0  0  0  0  0  0  0  0  0
   21.5220   29.7820    8.7930 C   0  0  0  0  0  0  0  0  0  0  0  0
   22.7590   29.3600    9.3450 C   0  0  0  0  0  0  0  0  0  0  0  0
   23.9420   29.3340    8.5190 C   0  0  0  0  0  0  0  0  0  0  0  0
   23.8240   29.7420    7.1340 C   0  0  0  0  0  0  0  0  0  0  0  0
   22.5750   30.1680    6.5780 C   0  0  0  0  0  0  0  0  0  0  0  0
   20.1960   30.6070    6.8670 O   0  0  0  0  0  0  0  0  0  0  0  0
   20.4110   29.8110    9.5530 F   0  0  0  0  0  0  0  0  0  0  0  0
   25.2800   28.8870    9.0970 C   0  0  0  0  0  0  0  0  0  0  0  0
   26.5300   29.2880    8.5020 C   0  0  0  0  0  0  0  0  0  0  0  0
   27.7970   28.8820    9.0310 C   0  0  0  0  0  0  0  0  0  0  0  0
   27.8130   28.0010   10.2310 C   0  0  0  0  0  0  0  0  0  0  0  0
   26.5520   27.5960   10.8410 C   0  0  0  0  0  0  0  0  0  0  0  0
   25.3250   28.0380   10.2630 C   0  0  0  0  0  0  0  0  0  0  0  0
   29.0120   29.3060    8.4030 C   0  0  0  0  0  0  0  0  0  0  0  0
   30.2670   28.8810    8.9540 C   0  0  0  0  0  0  0  0  0  0  0  0
   30.3100   28.0350   10.1140 C   0  0  0  0  0  0  0  0  0  0  0  0
   29.1040   27.6000   10.7530 C   0  0  0  0  0  0  0  0  0  0  0  0
   26.4650   26.7510   12.0100 C   0  0  0  0  0  0  0  0  0  0  0  0
   26.4170   26.0950   12.9600 N   0  0  0  0  0  0  0  0  0  0  0  0
   31.5370   27.6420   10.6180 O   0  0  0  0  0  0  0  0  0  0  0  0
  1  2  1  0
  1  6  1  0
  1  7  1  0
  2  3  1  0
  2  8  1  0
  3  4  1  0
  4  5  1  0
  4  9  1  0
  5  6  1  0
  9 10  1  0
  9 14  1  0
 10 11  1  0
 11 12  1  0
 11 15  1  0
 12 13  1  0
 12 18  1  0
 13 14  1  0
 13 19  1  0
 15 16  1  0
 16 17  1  0
 17 18  1  0
 17 21  1  0
 19 20  1  0
M  END
>  <PDB_ID>  (42) 
1yye

>  <HeavyAtoms>  (42) 
21

>  <MolWt>  (42) 
299.43

>  <SMILES>  (42) 
NCC1CC(C2CCC(O)C(F)C2)CC2CCC(O)CC12

$$$$
4zi1
     RDKit          3D

 24 27  0  0  0  0  0  0  0  0999 V2000
   47.3490   28.9810  -11.3710 C   0  0  0  0  0  0  0  0  0  0  0  0
   46.4180   28.1240  -10.8490 C   0  0  0  0  0  0  0  0  0  0  0  0
   45.3550   27.6580  -11.6170 C   0  0  0  0  0  0  0  0  0  0  0  0
   46.2310   27.5230   -9.4860 C   0  0  0  0  0  0  0  0  0  0  0  0
   44.9920   26.6610   -9.5830 C   0  0  0  0  0  0  0  0  0  0  0  0
   43.8020   24.6950   -8.6230 C   0  0  0  0  0  0  0  0  0  0  0  0
   44.4590   25.5410   -6.0210 C   0  0  0  0  0  0  0  0  0  0  0  0
   44.4860   26.7670  -10.8420 C   0  0  0  0  0  0  0  0  0  0  0  0
   41.9870   26.5360  -10.9470 C   0  0  0  0  0  0  0  0  0  0  0  0
   40.8410   26.0150  -11.5280 C   0  0  0  0  0  0  0  0  0  0  0  0
   40.9220   25.1650  -12.6370 C   0  0  0  0  0  0  0  0  0  0  0  0
   43.3230   25.3550  -12.6040 C   0  0  0  0  0  0  0  0  0  0  0  0
   45.2600   28.0480  -12.9300 C   0  0  0  0  0  0  0  0  0  0  0  0
   46.1880   28.9080  -13.4560 C   0  0  0  0  0  0  0  0  0  0  0  0
   47.2410   29.4070  -12.6920 C   0  0  0  0  0  0  0  0  0  0  0  0
   44.5290   25.8710   -8.4170 C   0  0  0  0  0  0  0  0  0  0  0  0
   43.3860   23.9510   -7.5210 C   0  0  0  0  0  0  0  0  0  0  0  0
   43.7170   24.3710   -6.2370 C   0  0  0  0  0  0  0  0  0  0  0  0
   44.8690   26.3010   -7.1130 C   0  0  0  0  0  0  0  0  0  0  0  0
   48.4710   29.4770  -10.5060 C   0  0  0  0  0  0  0  0  0  0  0  0
   46.0330   29.2520  -14.7500 O   0  0  0  0  0  0  0  0  0  0  0  0
   43.2780   23.6330   -5.1910 O   0  0  0  0  0  0  0  0  0  0  0  0
   43.2630   26.1730  -11.4590 C   0  0  1  0  0  0  0  0  0  0  0  0
   42.1580   24.8220  -13.1550 C   0  0  0  0  0  0  0  0  0  0  0  0
  1  2  1  0
  1 15  1  0
  1 20  1  0
  2  3  1  0
  2  4  1  0
  3  8  1  0
  3 13  1  0
  4  5  1  0
  5  8  1  0
  5 16  1  0
  6 16  1  0
  6 17  1  0
  7 18  1  0
  7 19  1  0
 23  8  1  6
  9 10  1  0
  9 23  1  0
 10 11  1  0
 11 24  1  0
 12 23  1  0
 12 24  1  0
 13 14  1  0
 14 15  1  0
 14 21  1  0
 16 19  1  0
 17 18  1  0
 18 22  1  0
M  END
>  <PDB_ID>  (43) 
4zi1

>  <HeavyAtoms>  (43) 
24

>  <MolWt>  (43) 
334.54

>  <SMILES>  (43) 
CC1CC(O)CC2C1CC(C1CCC(O)CC1)C2C1CCCCC1

$$$$
1x7b
     RDKit          3D

 20 22  0  0  0  0  0  0  0  0999 V2000
   32.6400   37.6170   35.8010 C   0  0  0  0  0  0  0  0  0  0  0  0
   31.3210   37.9160   36.2740 C   0  0  0  0  0  0  0  0  0  0  0  0
   30.8000   37.1700   37.3600 C   0  0  0  0  0  0  0  0  0  0  0  0
   31.5580   36.1150   38.0040 C   0  0  0  0  0  0  0  0  0  0  0  0
   32.8680   35.8300   37.5210 C   0  0  0  0  0  0  0  0  0  0  0  0
   33.4090   36.5770   36.4230 C   0  0  0  0  0  0  0  0  0  0  0  0
   29.6100   37.2450   37.9950 O   0  0  0  0  0  0  0  0  0  0  0  0
   29.5810   36.3170   38.9840 C   0  0  0  0  0  0  0  0  0  0  0  0
   30.7540   35.6090   39.0150 N   0  0  0  0  0  0  0  0  0  0  0  0
   28.4060   36.1630   39.8870 C   0  0  0  0  0  0  0  0  0  0  0  0
   28.5480   35.5620   41.1890 C   0  0  0  0  0  0  0  0  0  0  0  0
   27.4280   35.4370   42.0620 C   0  0  0  0  0  0  0  0  0  0  0  0
   26.1530   35.9250   41.6190 C   0  0  0  0  0  0  0  0  0  0  0  0
   26.0230   36.5210   40.3230 C   0  0  0  0  0  0  0  0  0  0  0  0
   27.1300   36.6450   39.4540 C   0  0  0  0  0  0  0  0  0  0  0  0
   34.6790   36.3130   35.9550 O   0  0  0  0  0  0  0  0  0  0  0  0
   24.8090   36.9640   39.9610 F   0  0  0  0  0  0  0  0  0  0  0  0
   25.0730   35.8110   42.4620 O   0  0  0  0  0  0  0  0  0  0  0  0
   30.5070   38.9990   35.6340 C   0  0  0  0  0  0  0  0  0  0  0  0
   29.6480   39.8330   36.2750 C   0  0  0  0  0  0  0  0  0  0  0  0
  1  2  1  0
  1  6  1  0
  2  3  1  0
  2 19  1  0
  3  4  1  0
  3  7  1  0
  4  5  1  0
  4  9  1  0
  5  6  1  0
  6 16  1  0
  7  8  1  0
  8  9  1  0
  8 10  1  0
 10 11  1  0
 10 15  1  0
 11 12  1  0
 12 13  1  0
 13 14  1  0
 13 18  1  0
 14 15  1  0
 14 17  1  0
 19 20  1  0
M  END
>  <PDB_ID>  (44) 
1x7b

>  <HeavyAtoms>  (44) 
20

>  <MolWt>  (44) 
287.38

>  <SMILES>  (44) 
CCC1CC(O)CC2NC(C3CCC(O)C(F)C3)OC12

$$$$
1x7b_lig2
     RDKit          3D

 20 22  0  0  0  0  0  0  0  0999 V2000
   28.4940   26.7150   11.8430 C   0  0  0  0  0  0  0  0  0  0  0  0
   27.0700   26.7300   11.6270 C   0  0  0  0  0  0  0  0  0  0  0  0
   26.5350   27.6020   10.6470 C   0  0  0  0  0  0  0  0  0  0  0  0
   27.3780   28.4700    9.8550 C   0  0  0  0  0  0  0  0  0  0  0  0
   28.7920   28.4470   10.0780 C   0  0  0  0  0  0  0  0  0  0  0  0
   29.3500   27.5730   11.0680 C   0  0  0  0  0  0  0  0  0  0  0  0
   25.2620   27.8170   10.2460 O   0  0  0  0  0  0  0  0  0  0  0  0
   25.2670   28.7590    9.2630 C   0  0  0  0  0  0  0  0  0  0  0  0
   26.5350   29.1720    9.0070 N   0  0  0  0  0  0  0  0  0  0  0  0
   24.0290   29.2370    8.5850 C   0  0  0  0  0  0  0  0  0  0  0  0
   24.0890   29.8070    7.2680 C   0  0  0  0  0  0  0  0  0  0  0  0
   22.9030   30.2550    6.6130 C   0  0  0  0  0  0  0  0  0  0  0  0
   21.6460   30.1290    7.2840 C   0  0  0  0  0  0  0  0  0  0  0  0
   21.5950   29.5610    8.5960 C   0  0  0  0  0  0  0  0  0  0  0  0
   22.7720   29.1160    9.2510 C   0  0  0  0  0  0  0  0  0  0  0  0
   30.7150   27.5490   11.2880 O   0  0  0  0  0  0  0  0  0  0  0  0
   20.3970   29.4610    9.1910 F   0  0  0  0  0  0  0  0  0  0  0  0
   20.5000   30.5620    6.6360 O   0  0  0  0  0  0  0  0  0  0  0  0
   26.1720   25.8480   12.4280 C   0  0  0  0  0  0  0  0  0  0  0  0
   25.1060   25.1580   11.9540 C   0  0  0  0  0  0  0  0  0  0  0  0
  1  2  1  0
  1  6  1  0
  2  3  1  0
  2 19  1  0
  3  4  1  0
  3  7  1  0
  4  5  1  0
  4  9  1  0
  5  6  1  0
  6 16  1  0
  7  8  1  0
  8  9  1  0
  8 10  1  0
 10 11  1  0
 10 15  1  0
 11 12  1  0
 12 13  1  0
 13 14  1  0
 13 18  1  0
 14 15  1  0
 14 17  1  0
 19 20  1  0
M  END
>  <PDB_ID>  (45) 
1x7b

>  <HeavyAtoms>  (45) 
20

>  <MolWt>  (45) 
287.38

>  <SMILES>  (45) 
CCC1CC(O)CC2NC(C3CCC(O)C(F)C3)OC12

$$$$
1nde
     RDKit          3D

 33 37  0  0  0  0  0  0  0  0999 V2000
  110.7370    5.5320 -105.3590 C   0  0  0  0  0  0  0  0  0  0  0  0
  110.9210    4.5570 -104.4530 N   0  0  0  0  0  0  0  0  0  0  0  0
  109.6060    6.2620 -105.4990 N   0  0  0  0  0  0  0  0  0  0  0  0
  111.6410    5.9560 -106.2990 N   0  0  0  0  0  0  0  0  0  0  0  0
  112.1510    3.7920 -104.3130 C   0  0  0  0  0  0  0  0  0  0  0  0
  109.9180    4.1440 -103.4700 C   0  0  0  0  0  0  0  0  0  0  0  0
  109.3710    7.2530 -106.3860 C   0  0  0  0  0  0  0  0  0  0  0  0
  111.4330    6.9410 -107.2020 C   0  0  0  0  0  0  0  0  0  0  0  0
  112.1770    2.3680 -103.6560 C   0  0  0  0  0  0  0  0  0  0  0  0
  109.8560    2.6970 -102.9320 C   0  0  0  0  0  0  0  0  0  0  0  0
  110.3030    7.5170 -107.1710 N   0  0  0  0  0  0  0  0  0  0  0  0
  108.3340    8.0500 -106.6270 N   0  0  0  0  0  0  0  0  0  0  0  0
  112.2390    7.7050 -108.4440 S   0  0  1  0  0  0  0  0  0  0  0  0
  111.1930    2.2550 -102.5700 N   0  0  0  0  0  0  0  0  0  0  0  0
  107.0840    8.1290 -106.0060 C   0  0  0  0  0  0  0  0  0  0  0  0
  113.6520    7.9070 -109.4800 C   0  0  0  0  0  0  0  0  0  0  0  0
  106.3950    9.3140 -106.7320 C   0  0  0  0  0  0  0  0  0  0  0  0
  112.5460    8.6530 -110.2420 C   0  0  0  0  0  0  0  0  0  0  0  0
  105.0900    9.5030 -106.1080 C   0  0  0  0  0  0  0  0  0  0  0  0
  112.5190    9.4020 -111.5480 C   0  0  0  0  0  0  0  0  0  0  0  0
  103.9240    9.4400 -106.8730 C   0  0  0  0  0  0  0  0  0  0  0  0
  105.0330    9.7310 -104.7160 C   0  0  0  0  0  0  0  0  0  0  0  0
  110.9910    9.8030 -111.5100 C   0  0  0  0  0  0  0  0  0  0  0  0
  102.6810    9.6030 -106.2350 C   0  0  0  0  0  0  0  0  0  0  0  0
  103.8050    9.8910 -104.0920 C   0  0  0  0  0  0  0  0  0  0  0  0
  110.5360   11.1320 -111.7190 C   0  0  0  0  0  0  0  0  0  0  0  0
  109.9960    8.7960 -111.2300 C   0  0  0  0  0  0  0  0  0  0  0  0
  102.6240    9.8210 -104.8370 C   0  0  0  0  0  0  0  0  0  0  0  0
  109.1400   11.4420 -111.6570 C   0  0  0  0  0  0  0  0  0  0  0  0
  108.6200    9.1160 -111.1700 C   0  0  0  0  0  0  0  0  0  0  0  0
  101.4320    9.9610 -104.2060 O   0  0  0  0  0  0  0  0  0  0  0  0
  108.1900   10.4320 -111.3820 C   0  0  0  0  0  0  0  0  0  0  0  0
  106.5190   10.8070 -111.3060 Cl  0  0  0  0  0  0  0  0  0  0  0  0
  1  2  1  0
  1  3  1  0
  1  4  1  0
  2  5  1  0
  2  6  1  0
  3  7  1  0
  4  8  1  0
  5  9  1  0
  6 10  1  0
  7 11  1  0
  7 12  1  0
  8 11  1  0
  8 13  1  0
  9 14  1  0
 10 14  1  0
 12 15  1  0
 13 16  1  0
 15 17  1  0
 16 18  1  0
 17 19  1  0
 18 20  1  0
 19 21  1  0
 19 22  1  0
 20 23  1  0
 21 24  1  0
 22 25  1  0
 23 26  1  0
 23 27  1  0
 24 28  1  0
 25 28  1  0
 26 29  1  0
 27 30  1  0
 28 31  1  0
 29 32  1  0
 30 32  1  0
 32 33  1  0
 18 13  1  0
M  END
>  <PDB_ID>  (46) 
1nde

>  <HeavyAtoms>  (46) 
33

>  <MolWt>  (46) 
503.20

>  <SMILES>  (46) 
OC1CCC(CCNC2NC(N3CCNCC3)NC([S@SP1H]3CC3CC3CCC(Cl)CC3)N2)CC1

$$$$
2yly
     RDKit          3D

 24 26  0  0  0  0  0  0  0  0999 V2000
  -30.4780  -10.1100  -28.5970 O   0  0  0  0  0  0  0  0  0  0  0  0
  -29.7950  -10.1860  -29.8460 S   0  0  2  0  0  0  0  0  0  0  0  0
  -30.4900  -11.0940  -30.7290 O   0  0  0  0  0  0  0  0  0  0  0  0
  -28.3870  -10.8260  -29.4770 C   0  0  0  0  0  0  0  0  0  0  0  0
  -28.2970  -11.6640  -28.3450 C   0  0  0  0  0  0  0  0  0  0  0  0
  -27.0820  -12.2270  -28.0000 C   0  0  0  0  0  0  0  0  0  0  0  0
  -25.9590  -11.9700  -28.7870 C   0  0  0  0  0  0  0  0  0  0  0  0
  -24.8000  -12.5320  -28.4250 O   0  0  0  0  0  0  0  0  0  0  0  0
  -26.0250  -11.1440  -29.9200 C   0  0  0  0  0  0  0  0  0  0  0  0
  -27.2530  -10.5650  -30.2630 C   0  0  0  0  0  0  0  0  0  0  0  0
  -29.7720   -8.7460  -30.4030 N   0  0  0  0  0  0  0  0  0  0  0  0
  -30.2140   -8.3720  -31.7570 C   0  0  1  0  0  0  0  0  0  0  0  0
  -29.2210   -7.6260  -32.6520 C   0  0  0  0  0  0  0  0  0  0  0  0
  -29.4960   -9.0980  -32.8760 C   0  0  0  0  0  0  0  0  0  0  0  0
  -29.3560   -7.5870  -29.5870 C   0  0  0  0  0  0  0  0  0  0  0  0
  -30.4470   -6.8050  -28.8080 C   0  0  2  0  0  0  0  0  0  0  0  0
  -29.7810   -5.7420  -27.9380 C   0  0  0  0  0  0  0  0  0  0  0  0
  -31.0940   -7.6460  -27.8400 O   0  0  0  0  0  0  0  0  0  0  0  0
  -31.4760   -6.1190  -29.7110 C   0  0  0  0  0  0  0  0  0  0  0  0
  -32.8420   -6.5000  -29.7250 C   0  0  0  0  0  0  0  0  0  0  0  0
  -33.7560   -5.8490  -30.5700 C   0  0  0  0  0  0  0  0  0  0  0  0
  -33.3590   -4.8130  -31.4120 C   0  0  0  0  0  0  0  0  0  0  0  0
  -32.0070   -4.4290  -31.4250 C   0  0  0  0  0  0  0  0  0  0  0  0
  -31.0760   -5.0720  -30.5820 C   0  0  0  0  0  0  0  0  0  0  0  0
  2  1  1  1
  2  3  1  0
  2  4  1  0
  2 11  1  0
  4  5  1  0
  4 10  1  0
  5  6  1  0
  6  7  1  0
  7  8  1  0
  7  9  1  0
  9 10  1  0
 12 11  1  1
 11 15  1  0
 12 13  1  0
 12 14  1  0
 13 14  1  0
 15 16  1  0
 16 17  1  1
 16 18  1  0
 16 19  1  0
 19 20  1  0
 19 24  1  0
 20 21  1  0
 21 22  1  0
 22 23  1  0
 23 24  1  0
M  END
>  <PDB_ID>  (47) 
2yly

>  <HeavyAtoms>  (47) 
24

>  <MolWt>  (47) 
361.55

>  <SMILES>  (47) 
C[C@](O)(CN(C1CC1)S(O)(O)C1CCC(O)CC1)C1CCCCC1

$$$$
2yly_lig2
     RDKit          3D

 24 26  0  0  0  0  0  0  0  0999 V2000
  -59.3440  -16.3490  -32.5610 O   0  0  0  0  0  0  0  0  0  0  0  0
  -60.3070  -15.4430  -32.0120 S   0  0  2  0  0  0  0  0  0  0  0  0
  -59.6590  -14.7080  -30.9380 O   0  0  0  0  0  0  0  0  0  0  0  0
  -61.4570  -16.3230  -31.2870 C   0  0  0  0  0  0  0  0  0  0  0  0
  -61.1130  -17.4220  -30.4620 C   0  0  0  0  0  0  0  0  0  0  0  0
  -62.1180  -18.1550  -29.8520 C   0  0  0  0  0  0  0  0  0  0  0  0
  -63.4510  -17.7940  -30.0400 C   0  0  0  0  0  0  0  0  0  0  0  0
  -64.4190  -18.4900  -29.4440 O   0  0  0  0  0  0  0  0  0  0  0  0
  -63.8150  -16.7170  -30.8310 C   0  0  0  0  0  0  0  0  0  0  0  0
  -62.8210  -15.9800  -31.4590 C   0  0  0  0  0  0  0  0  0  0  0  0
  -60.8740  -14.5030  -33.1260 N   0  0  0  0  0  0  0  0  0  0  0  0
  -61.2180  -13.0780  -32.7370 C   0  0  1  0  0  0  0  0  0  0  0  0
  -61.3110  -11.8450  -33.6580 C   0  0  0  0  0  0  0  0  0  0  0  0
  -62.5530  -12.6300  -33.3230 C   0  0  0  0  0  0  0  0  0  0  0  0
  -61.1250  -15.0180  -34.5270 C   0  0  0  0  0  0  0  0  0  0  0  0
  -59.9220  -15.1430  -35.5150 C   0  0  2  0  0  0  0  0  0  0  0  0
  -60.2710  -15.7040  -36.9030 C   0  0  0  0  0  0  0  0  0  0  0  0
  -58.9410  -16.0900  -35.0870 O   0  0  0  0  0  0  0  0  0  0  0  0
  -59.3300  -13.7690  -35.6050 C   0  0  2  0  0  0  0  0  0  0  0  0
  -58.2690  -13.4210  -34.7630 C   0  0  0  0  0  0  0  0  0  0  0  0
  -57.7590  -12.1420  -34.8060 C   0  0  0  0  0  0  0  0  0  0  0  0
  -58.2460  -11.1740  -35.6930 C   0  0  0  0  0  0  0  0  0  0  0  0
  -59.3130  -11.5110  -36.5310 C   0  0  0  0  0  0  0  0  0  0  0  0
  -59.8630  -12.8030  -36.4750 C   0  0  0  0  0  0  0  0  0  0  0  0
  2  1  1  6
  2  3  1  0
  2  4  1  0
  2 11  1  0
  4  5  1  0
  4 10  1  0
  5  6  1  0
  6  7  1  0
  7  8  1  0
  7  9  1  0
  9 10  1  0
 12 11  1  6
 11 15  1  0
 12 13  1  0
 12 14  1  0
 13 14  1  0
 15 16  1  0
 16 17  1  6
 16 18  1  0
 16 19  1  0
 19 20  1  1
 19 24  1  0
 20 21  1  0
 21 22  1  0
 22 23  1  0
 23 24  1  0
M  END
>  <PDB_ID>  (48) 
2yly

>  <HeavyAtoms>  (48) 
24

>  <MolWt>  (48) 
361.55

>  <SMILES>  (48) 
C[C@](O)(CN(C1CC1)S(O)(O)C1CCC(O)CC1)C1CCCCC1

$$$$
1u3q
     RDKit          3D

 18 20  0  0  0  0  0  0  0  0999 V2000
   19.9970   -4.2710   17.3730 C   0  0  0  0  0  0  0  0  0  0  0  0
   20.4640   -4.2460   16.0270 C   0  0  0  0  0  0  0  0  0  0  0  0
   19.5010   -4.1030   14.9980 C   0  0  0  0  0  0  0  0  0  0  0  0
   18.0940   -3.9840   15.2330 C   0  0  0  0  0  0  0  0  0  0  0  0
   17.6060   -4.0080   16.6170 C   0  0  0  0  0  0  0  0  0  0  0  0
   18.5750   -4.1540   17.6880 C   0  0  0  0  0  0  0  0  0  0  0  0
   19.7190   -4.0450   13.6830 O   0  0  0  0  0  0  0  0  0  0  0  0
   18.5560   -3.8930   13.1000 N   0  0  0  0  0  0  0  0  0  0  0  0
   17.4520   -3.8540   13.9310 C   0  0  2  0  0  0  0  0  0  0  0  0
   16.0100   -3.6420   13.4810 C   0  0  0  0  0  0  0  0  0  0  0  0
   15.7170   -3.3960   12.0780 C   0  0  0  0  0  0  0  0  0  0  0  0
   14.3850   -3.1850   11.6060 C   0  0  0  0  0  0  0  0  0  0  0  0
   13.3140   -3.2140   12.5310 C   0  0  0  0  0  0  0  0  0  0  0  0
   13.5740   -3.4580   13.9290 C   0  0  0  0  0  0  0  0  0  0  0  0
   14.9240   -3.6720   14.4110 C   0  0  0  0  0  0  0  0  0  0  0  0
   12.1580   -3.0310   12.1340 O   0  0  0  0  0  0  0  0  0  0  0  0
   16.5820   -3.3550   11.2110 O   0  0  0  0  0  0  0  0  0  0  0  0
   20.8390   -4.3920   18.2710 O   0  0  0  0  0  0  0  0  0  0  0  0
  1  2  1  0
  1  6  1  0
  1 18  1  0
  2  3  1  0
  3  4  1  0
  3  7  1  0
  4  5  1  0
  4  9  1  0
  5  6  1  0
  7  8  1  0
  8  9  1  0
  9 10  1  1
 10 11  1  0
 10 15  1  0
 11 12  1  0
 11 17  1  0
 12 13  1  0
 13 14  1  0
 13 16  1  0
 14 15  1  0
M  END
>  <PDB_ID>  (49) 
1u3q

>  <HeavyAtoms>  (49) 
18

>  <MolWt>  (49) 
257.33

>  <SMILES>  (49) 
OC1CCC([C@H]2NOC3CC(O)CCC32)C(O)C1

$$$$
1u3q_lig2
     RDKit          3D

 18 20  0  0  0  0  0  0  0  0999 V2000
   12.2640   37.2250   24.2210 C   0  0  0  0  0  0  0  0  0  0  0  0
   10.8510   37.2170   24.3540 C   0  0  0  0  0  0  0  0  0  0  0  0
   10.0840   37.1930   23.1680 C   0  0  0  0  0  0  0  0  0  0  0  0
   10.6570   37.1810   21.8570 C   0  0  0  0  0  0  0  0  0  0  0  0
   12.1000   37.1830   21.7220 C   0  0  0  0  0  0  0  0  0  0  0  0
   12.9010   37.2050   22.9210 C   0  0  0  0  0  0  0  0  0  0  0  0
    8.7490   37.1770   23.0440 O   0  0  0  0  0  0  0  0  0  0  0  0
    8.4750   37.1550   21.7520 N   0  0  0  0  0  0  0  0  0  0  0  0
    9.5670   37.1820   20.8990 C   0  0  2  0  0  0  0  0  0  0  0  0
    9.5320   37.1270   19.3800 C   0  0  0  0  0  0  0  0  0  0  0  0
    8.2730   37.0040   18.6720 C   0  0  0  0  0  0  0  0  0  0  0  0
    8.2160   36.9640   17.2500 C   0  0  0  0  0  0  0  0  0  0  0  0
    9.4150   37.0540   16.5050 C   0  0  0  0  0  0  0  0  0  0  0  0
   10.6770   37.1780   17.1800 C   0  0  0  0  0  0  0  0  0  0  0  0
   10.7410   37.2200   18.6170 C   0  0  0  0  0  0  0  0  0  0  0  0
    9.3750   37.0230   15.2720 O   0  0  0  0  0  0  0  0  0  0  0  0
    7.1870   36.9220   19.2380 O   0  0  0  0  0  0  0  0  0  0  0  0
   12.9550   37.2500   25.2430 O   0  0  0  0  0  0  0  0  0  0  0  0
  1  2  1  0
  1  6  1  0
  1 18  1  0
  2  3  1  0
  3  4  1  0
  3  7  1  0
  4  5  1  0
  4  9  1  0
  5  6  1  0
  7  8  1  0
  8  9  1  0
  9 10  1  6
 10 11  1  0
 10 15  1  0
 11 12  1  0
 11 17  1  0
 12 13  1  0
 13 14  1  0
 13 16  1  0
 14 15  1  0
M  END
>  <PDB_ID>  (50) 
1u3q

>  <HeavyAtoms>  (50) 
18

>  <MolWt>  (50) 
257.33

>  <SMILES>  (50) 
OC1CCC([C@H]2NOC3CC(O)CCC32)C(O)C1

$$$$
1u3q_lig3
     RDKit          3D

 18 20  0  0  0  0  0  0  0  0999 V2000
   20.4530   17.0320   -9.5750 C   0  0  0  0  0  0  0  0  0  0  0  0
   20.8290   17.0830   -8.2220 C   0  0  0  0  0  0  0  0  0  0  0  0
   19.8390   16.8000   -7.2610 C   0  0  0  0  0  0  0  0  0  0  0  0
   18.4890   16.4740   -7.5770 C   0  0  0  0  0  0  0  0  0  0  0  0
   18.0980   16.4160   -8.9670 C   0  0  0  0  0  0  0  0  0  0  0  0
   19.1010   16.7030   -9.9710 C   0  0  0  0  0  0  0  0  0  0  0  0
   19.9790   16.7830   -5.9370 O   0  0  0  0  0  0  0  0  0  0  0  0
   18.8230   16.4640   -5.4260 N   0  0  0  0  0  0  0  0  0  0  0  0
   17.7900   16.2580   -6.3280 C   0  0  2  0  0  0  0  0  0  0  0  0
   16.3660   15.8410   -5.9680 C   0  0  0  0  0  0  0  0  0  0  0  0
   16.0330   15.5740   -4.5900 C   0  0  0  0  0  0  0  0  0  0  0  0
   14.7220   15.1820   -4.1910 C   0  0  0  0  0  0  0  0  0  0  0  0
   13.7110   15.0530   -5.1680 C   0  0  0  0  0  0  0  0  0  0  0  0
   14.0120   15.3120   -6.5520 C   0  0  0  0  0  0  0  0  0  0  0  0
   15.3390   15.7080   -6.9610 C   0  0  0  0  0  0  0  0  0  0  0  0
   12.5700   14.7170   -4.8240 O   0  0  0  0  0  0  0  0  0  0  0  0
   16.8480   15.6640   -3.6790 O   0  0  0  0  0  0  0  0  0  0  0  0
   21.3030   17.2740  -10.4200 O   0  0  0  0  0  0  0  0  0  0  0  0
  1  2  1  0
  1  6  1  0
  1 18  1  0
  2  3  1  0
  3  4  1  0
  3  7  1  0
  4  5  1  0
  4  9  1  0
  5  6  1  0
  7  8  1  0
  8  9  1  0
  9 10  1  6
 10 11  1  0
 10 15  1  0
 11 12  1  0
 11 17  1  0
 12 13  1  0
 13 14  1  0
 13 16  1  0
 14 15  1  0
M  END
>  <PDB_ID>  (51) 
1u3q

>  <HeavyAtoms>  (51) 
18

>  <MolWt>  (51) 
257.33

>  <SMILES>  (51) 
OC1CCC([C@H]2NOC3CC(O)CCC32)C(O)C1

$$$$
1u3q_lig4
     RDKit          3D

 18 20  0  0  0  0  0  0  0  0999 V2000
  -15.0720   13.9200   19.9230 C   0  0  0  0  0  0  0  0  0  0  0  0
  -13.7840   13.8430   20.5020 C   0  0  0  0  0  0  0  0  0  0  0  0
  -12.6770   13.8870   19.6290 C   0  0  0  0  0  0  0  0  0  0  0  0
  -12.7890   14.0120   18.2070 C   0  0  0  0  0  0  0  0  0  0  0  0
  -14.1080   14.0960   17.6100 C   0  0  0  0  0  0  0  0  0  0  0  0
  -15.2550   14.0520   18.4830 C   0  0  0  0  0  0  0  0  0  0  0  0
  -11.3820   13.8400   19.9520 O   0  0  0  0  0  0  0  0  0  0  0  0
  -10.6940   13.9140   18.8360 N   0  0  0  0  0  0  0  0  0  0  0  0
  -11.4440   13.9950   17.6650 C   0  0  2  0  0  0  0  0  0  0  0  0
  -10.8880   14.1260   16.2710 C   0  0  0  0  0  0  0  0  0  0  0  0
   -9.4690   14.2090   16.0850 C   0  0  0  0  0  0  0  0  0  0  0  0
   -8.8760   14.3270   14.7810 C   0  0  0  0  0  0  0  0  0  0  0  0
   -9.7170   14.3570   13.6440 C   0  0  0  0  0  0  0  0  0  0  0  0
  -11.1380   14.2700   13.8120 C   0  0  0  0  0  0  0  0  0  0  0  0
  -11.7390   14.1500   15.1250 C   0  0  0  0  0  0  0  0  0  0  0  0
   -9.2220   14.4560   12.5020 O   0  0  0  0  0  0  0  0  0  0  0  0
   -8.6800   14.1870   17.0230 O   0  0  0  0  0  0  0  0  0  0  0  0
  -16.0410   13.8800   20.6680 O   0  0  0  0  0  0  0  0  0  0  0  0
  1  2  1  0
  1  6  1  0
  1 18  1  0
  2  3  1  0
  3  4  1  0
  3  7  1  0
  4  5  1  0
  4  9  1  0
  5  6  1  0
  7  8  1  0
  8  9  1  0
  9 10  1  1
 10 11  1  0
 10 15  1  0
 11 12  1  0
 11 17  1  0
 12 13  1  0
 13 14  1  0
 13 16  1  0
 14 15  1  0
M  END
>  <PDB_ID>  (52) 
1u3q

>  <HeavyAtoms>  (52) 
18

>  <MolWt>  (52) 
257.33

>  <SMILES>  (52) 
OC1CCC([C@H]2NOC3CC(O)CCC32)C(O)C1

$$$$
1u3s
     RDKit          3D

 21 24  0  0  0  0  0  0  0  0999 V2000
   28.5560   36.9250   37.8410 C   0  0  0  0  0  0  0  0  0  0  0  0
   28.8270   36.3570   39.1400 C   0  0  0  0  0  0  0  0  0  0  0  0
   27.7760   36.1960   40.0930 C   0  0  0  0  0  0  0  0  0  0  0  0
   26.3940   36.6220   39.7330 C   0  0  0  0  0  0  0  0  0  0  0  0
   26.1350   37.1800   38.4500 C   0  0  0  0  0  0  0  0  0  0  0  0
   27.2100   37.3290   37.5200 C   0  0  0  0  0  0  0  0  0  0  0  0
   28.0480   35.6400   41.3790 C   0  0  0  0  0  0  0  0  0  0  0  0
   26.9740   35.4930   42.3120 C   0  0  0  0  0  0  0  0  0  0  0  0
   25.6430   35.9000   41.9620 C   0  0  0  0  0  0  0  0  0  0  0  0
   25.3440   36.4620   40.6810 C   0  0  0  0  0  0  0  0  0  0  0  0
   24.6310   35.7380   42.8950 O   0  0  0  0  0  0  0  0  0  0  0  0
   29.6560   37.1110   36.8170 C   0  0  0  0  0  0  0  0  0  0  0  0
   31.0570   36.7560   36.8020 C   0  0  0  0  0  0  0  0  0  0  0  0
   31.6060   37.1910   35.5520 C   0  0  0  0  0  0  0  0  0  0  0  0
   30.6050   37.7710   34.8600 O   0  0  0  0  0  0  0  0  0  0  0  0
   29.5120   37.7190   35.5850 N   0  0  0  0  0  0  0  0  0  0  0  0
   31.9610   36.0910   37.7340 C   0  0  0  0  0  0  0  0  0  0  0  0
   33.3440   35.9000   37.3790 C   0  0  0  0  0  0  0  0  0  0  0  0
   33.8320   36.3630   36.1040 C   0  0  0  0  0  0  0  0  0  0  0  0
   32.9710   37.0080   35.1860 C   0  0  0  0  0  0  0  0  0  0  0  0
   35.1640   36.1880   35.7540 O   0  0  0  0  0  0  0  0  0  0  0  0
  1  2  1  0
  1  6  1  0
  1 12  1  0
  2  3  1  0
  3  4  1  0
  3  7  1  0
  4  5  1  0
  4 10  1  0
  5  6  1  0
  7  8  1  0
  8  9  1  0
  9 10  1  0
  9 11  1  0
 12 13  1  0
 12 16  1  0
 13 14  1  0
 13 17  1  0
 14 15  1  0
 14 20  1  0
 15 16  1  0
 17 18  1  0
 18 19  1  0
 19 20  1  0
 19 21  1  0
M  END
>  <PDB_ID>  (53) 
1u3s

>  <HeavyAtoms>  (53) 
21

>  <MolWt>  (53) 
295.42

>  <SMILES>  (53) 
OC1CCC2CC(C3NOC4CC(O)CCC43)CCC2C1

$$$$
1u3s_lig2
     RDKit          3D

 21 24  0  0  0  0  0  0  0  0999 V2000
   24.7230   28.3790   10.5260 C   0  0  0  0  0  0  0  0  0  0  0  0
   24.8670   28.9490    9.2060 C   0  0  0  0  0  0  0  0  0  0  0  0
   23.7200   29.4090    8.4830 C   0  0  0  0  0  0  0  0  0  0  0  0
   22.3680   29.2950    9.1080 C   0  0  0  0  0  0  0  0  0  0  0  0
   22.2320   28.7280   10.4100 C   0  0  0  0  0  0  0  0  0  0  0  0
   23.4010   28.2770   11.1080 C   0  0  0  0  0  0  0  0  0  0  0  0
   23.8670   29.9710    7.1820 C   0  0  0  0  0  0  0  0  0  0  0  0
   22.7050   30.4230    6.4890 C   0  0  0  0  0  0  0  0  0  0  0  0
   21.4080   30.3170    7.0880 C   0  0  0  0  0  0  0  0  0  0  0  0
   21.2300   29.7560    8.3920 C   0  0  0  0  0  0  0  0  0  0  0  0
   20.3070   30.7730    6.3750 O   0  0  0  0  0  0  0  0  0  0  0  0
   25.9270   27.9010   11.3140 C   0  0  0  0  0  0  0  0  0  0  0  0
   27.3450   27.9800   11.0780 C   0  0  0  0  0  0  0  0  0  0  0  0
   28.0070   27.3630   12.1830 C   0  0  0  0  0  0  0  0  0  0  0  0
   27.0540   26.9360   13.0240 O   0  0  0  0  0  0  0  0  0  0  0  0
   25.8850   27.2440   12.5270 N   0  0  0  0  0  0  0  0  0  0  0  0
   28.1850   28.5300   10.0160 C   0  0  0  0  0  0  0  0  0  0  0  0
   29.6210   28.4390   10.1120 C   0  0  0  0  0  0  0  0  0  0  0  0
   30.2230   27.8060   11.2590 C   0  0  0  0  0  0  0  0  0  0  0  0
   29.4220   27.2620   12.2980 C   0  0  0  0  0  0  0  0  0  0  0  0
   31.6030   27.7210   11.3700 O   0  0  0  0  0  0  0  0  0  0  0  0
  1  2  1  0
  1  6  1  0
  1 12  1  0
  2  3  1  0
  3  4  1  0
  3  7  1  0
  4  5  1  0
  4 10  1  0
  5  6  1  0
  7  8  1  0
  8  9  1  0
  9 10  1  0
  9 11  1  0
 12 13  1  0
 12 16  1  0
 13 14  1  0
 13 17  1  0
 14 15  1  0
 14 20  1  0
 15 16  1  0
 17 18  1  0
 18 19  1  0
 19 20  1  0
 19 21  1  0
M  END
>  <PDB_ID>  (54) 
1u3s

>  <HeavyAtoms>  (54) 
21

>  <MolWt>  (54) 
295.42

>  <SMILES>  (54) 
OC1CCC2CC(C3NOC4CC(O)CCC43)CCC2C1

$$$$
1u3r
     RDKit          3D

 21 24  0  0  0  0  0  0  0  0999 V2000
   25.3150   36.0370   41.3650 C   0  0  0  0  0  0  0  0  0  0  0  0
   26.6330   35.4910   41.5330 C   0  0  0  0  0  0  0  0  0  0  0  0
   27.5430   35.6270   40.4440 C   0  0  0  0  0  0  0  0  0  0  0  0
   27.1620   36.2700   39.2500 C   0  0  0  0  0  0  0  0  0  0  0  0
   25.8540   36.8170   39.0640 C   0  0  0  0  0  0  0  0  0  0  0  0
   24.9250   36.6940   40.1460 C   0  0  0  0  0  0  0  0  0  0  0  0
   28.8300   35.2130   40.3600 O   0  0  0  0  0  0  0  0  0  0  0  0
   29.2550   35.5980   39.1140 C   0  0  0  0  0  0  0  0  0  0  0  0
   28.2490   36.2520   38.3910 N   0  0  0  0  0  0  0  0  0  0  0  0
   30.5760   35.3850   38.6210 C   0  0  0  0  0  0  0  0  0  0  0  0
   31.2050   36.0730   37.4430 C   0  0  0  0  0  0  0  0  0  0  0  0
   32.6220   35.7430   37.0830 C   0  0  0  0  0  0  0  0  0  0  0  0
   33.3370   34.7850   37.8630 C   0  0  0  0  0  0  0  0  0  0  0  0
   32.7280   34.1320   38.9810 C   0  0  0  0  0  0  0  0  0  0  0  0
   31.3850   34.4320   39.3440 C   0  0  0  0  0  0  0  0  0  0  0  0
   30.5470   37.0530   36.6130 C   0  0  0  0  0  0  0  0  0  0  0  0
   31.1960   37.6870   35.5020 C   0  0  0  0  0  0  0  0  0  0  0  0
   32.5520   37.3560   35.1810 C   0  0  0  0  0  0  0  0  0  0  0  0
   33.2740   36.3930   35.9570 C   0  0  0  0  0  0  0  0  0  0  0  0
   24.3980   35.9380   42.3820 O   0  0  0  0  0  0  0  0  0  0  0  0
   34.5880   36.1210   35.5990 O   0  0  0  0  0  0  0  0  0  0  0  0
  1  2  1  0
  1  6  1  0
  1 20  1  0
  2  3  1  0
  3  4  1  0
  3  7  1  0
  4  5  1  0
  4  9  1  0
  5  6  1  0
  7  8  1  0
  8  9  1  0
  8 10  1  0
 10 11  1  0
 10 15  1  0
 11 12  1  0
 11 16  1  0
 12 13  1  0
 12 19  1  0
 13 14  1  0
 14 15  1  0
 16 17  1  0
 17 18  1  0
 18 19  1  0
 19 21  1  0
M  END
>  <PDB_ID>  (55) 
1u3r

>  <HeavyAtoms>  (55) 
21

>  <MolWt>  (55) 
295.42

>  <SMILES>  (55) 
OC1CCC2NC(C3CCCC4C(O)CCCC43)OC2C1

$$$$
1u3r_lig2
     RDKit          3D

 21 24  0  0  0  0  0  0  0  0999 V2000
   20.9140   30.1200    7.3640 C   0  0  0  0  0  0  0  0  0  0  0  0
   22.2920   30.2980    7.0110 C   0  0  0  0  0  0  0  0  0  0  0  0
   23.2740   29.8260    7.9210 C   0  0  0  0  0  0  0  0  0  0  0  0
   22.9140   29.2130    9.1340 C   0  0  0  0  0  0  0  0  0  0  0  0
   21.5480   29.0220    9.5070 C   0  0  0  0  0  0  0  0  0  0  0  0
   20.5380   29.4900    8.6010 C   0  0  0  0  0  0  0  0  0  0  0  0
   24.6150   29.8850    7.8050 O   0  0  0  0  0  0  0  0  0  0  0  0
   25.1030   29.3050    8.9490 C   0  0  0  0  0  0  0  0  0  0  0  0
   24.0800   28.8710    9.8010 N   0  0  0  0  0  0  0  0  0  0  0  0
   26.4900   29.1670    9.2360 C   0  0  0  0  0  0  0  0  0  0  0  0
   27.1050   28.3280   10.3110 C   0  0  0  0  0  0  0  0  0  0  0  0
   28.5950   28.3240   10.4520 C   0  0  0  0  0  0  0  0  0  0  0  0
   29.3980   29.1180    9.5670 C   0  0  0  0  0  0  0  0  0  0  0  0
   28.8020   29.9130    8.5470 C   0  0  0  0  0  0  0  0  0  0  0  0
   27.3870   29.9330    8.3930 C   0  0  0  0  0  0  0  0  0  0  0  0
   26.3680   27.5030   11.2450 C   0  0  0  0  0  0  0  0  0  0  0  0
   27.0190   26.7240   12.2540 C   0  0  0  0  0  0  0  0  0  0  0  0
   28.4460   26.7420   12.3650 C   0  0  0  0  0  0  0  0  0  0  0  0
   29.2370   27.5340   11.4760 C   0  0  0  0  0  0  0  0  0  0  0  0
   19.9220   30.5630    6.5100 O   0  0  0  0  0  0  0  0  0  0  0  0
   30.6130   27.5190   11.6220 O   0  0  0  0  0  0  0  0  0  0  0  0
  1  2  1  0
  1  6  1  0
  1 20  1  0
  2  3  1  0
  3  4  1  0
  3  7  1  0
  4  5  1  0
  4  9  1  0
  5  6  1  0
  7  8  1  0
  8  9  1  0
  8 10  1  0
 10 11  1  0
 10 15  1  0
 11 12  1  0
 11 16  1  0
 12 13  1  0
 12 19  1  0
 13 14  1  0
 14 15  1  0
 16 17  1  0
 17 18  1  0
 18 19  1  0
 19 21  1  0
M  END
>  <PDB_ID>  (56) 
1u3r

>  <HeavyAtoms>  (56) 
21

>  <MolWt>  (56) 
295.42

>  <SMILES>  (56) 
OC1CCC2NC(C3CCCC4C(O)CCCC43)OC2C1

$$$$
2qtu
     RDKit          3D

 26 29  0  0  0  0  0  0  0  0999 V2000
   80.6000   42.5230   68.0700 C   0  0  0  0  0  0  0  0  0  0  0  0
   80.6450   42.5640   69.4510 C   0  0  0  0  0  0  0  0  0  0  0  0
   79.7810   41.7960   70.1760 C   0  0  0  0  0  0  0  0  0  0  0  0
   78.8430   40.9790   69.5460 C   0  0  0  0  0  0  0  0  0  0  0  0
   78.0110   40.2480   70.3720 O   0  0  0  0  0  0  0  0  0  0  0  0
   77.5250   39.0520   69.7450 C   0  0  1  0  0  0  0  0  0  0  0  0
   76.6120   38.2680   70.7200 C   0  0  0  0  0  0  0  0  0  0  0  0
   76.6030   38.5840   72.0860 C   0  0  0  0  0  0  0  0  0  0  0  0
   75.7930   37.8710   72.9670 C   0  0  0  0  0  0  0  0  0  0  0  0
   74.9850   36.8410   72.5040 C   0  0  0  0  0  0  0  0  0  0  0  0
   74.2130   36.1510   73.3720 O   0  0  0  0  0  0  0  0  0  0  0  0
   74.9820   36.5220   71.1520 C   0  0  0  0  0  0  0  0  0  0  0  0
   75.7910   37.2320   70.2650 C   0  0  0  0  0  0  0  0  0  0  0  0
   76.8140   39.3880   68.4170 C   0  0  2  0  0  0  0  0  0  0  0  0
   77.8040   40.0810   67.4280 C   0  0  2  0  0  0  0  0  0  0  0  0
   78.7970   40.9380   68.1610 C   0  0  0  0  0  0  0  0  0  0  0  0
   79.6760   41.7130   67.4260 C   0  0  0  0  0  0  0  0  0  0  0  0
   76.9030   40.9690   66.5510 C   0  0  0  0  0  0  0  0  0  0  0  0
   75.5620   41.1300   67.3020 C   0  0  1  0  0  0  0  0  0  0  0  0
   75.3010   42.4760   67.4700 F   0  0  0  0  0  0  0  0  0  0  0  0
   74.5270   40.5530   66.5830 F   0  0  0  0  0  0  0  0  0  0  0  0
   75.6920   40.4070   68.6630 C   0  0  0  0  0  0  0  0  0  0  0  0
   79.8260   41.8320   71.6730 C   0  0  0  0  0  0  0  0  0  0  0  0
   80.6290   40.7550   72.1170 O   0  0  0  0  0  0  0  0  0  0  0  0
   80.6160   40.8770   73.5180 C   0  0  0  0  0  0  0  0  0  0  0  0
   81.4450   43.2770   67.3500 O   0  0  0  0  0  0  0  0  0  0  0  0
  1  2  1  0
  1 17  1  0
  1 26  1  0
  2  3  1  0
  3  4  1  0
  3 23  1  0
  4  5  1  0
  4 16  1  0
  5  6  1  0
  6  7  1  1
  6 14  1  0
  7  8  1  0
  7 13  1  0
  8  9  1  0
  9 10  1  0
 10 11  1  0
 10 12  1  0
 12 13  1  0
 14 15  1  0
 14 22  1  1
 15 16  1  0
 15 18  1  6
 16 17  1  0
 18 19  1  0
 19 20  1  1
 19 21  1  0
 19 22  1  0
 23 24  1  0
 24 25  1  0
M  END
>  <PDB_ID>  (57) 
2qtu

>  <HeavyAtoms>  (57) 
26

>  <MolWt>  (57) 
374.47

>  <SMILES>  (57) 
COCC1CC(O)CC2C1O[C@@H](C1CCC(O)CC1)[C@H]1CC(F)(F)C[C@@H]21

$$$$
2qtu_lig2
     RDKit          3D

 26 29  0  0  0  0  0  0  0  0999 V2000
   92.2250   35.9300   48.9560 C   0  0  0  0  0  0  0  0  0  0  0  0
   92.2670   35.9630   47.5770 C   0  0  0  0  0  0  0  0  0  0  0  0
   92.0420   34.8250   46.8660 C   0  0  0  0  0  0  0  0  0  0  0  0
   91.7870   33.6230   47.5010 C   0  0  0  0  0  0  0  0  0  0  0  0
   91.5810   32.5410   46.6810 O   0  0  0  0  0  0  0  0  0  0  0  0
   90.7350   31.5590   47.2920 C   0  0  1  0  0  0  0  0  0  0  0  0
   90.5300   30.3670   46.3360 C   0  0  0  0  0  0  0  0  0  0  0  0
   89.9660   29.1720   46.7950 C   0  0  0  0  0  0  0  0  0  0  0  0
   89.7670   28.0960   45.9260 C   0  0  0  0  0  0  0  0  0  0  0  0
   90.1310   28.2070   44.5850 C   0  0  0  0  0  0  0  0  0  0  0  0
   89.9310   27.1780   43.7320 O   0  0  0  0  0  0  0  0  0  0  0  0
   90.6990   29.3890   44.1220 C   0  0  0  0  0  0  0  0  0  0  0  0
   90.8990   30.4670   44.9880 C   0  0  0  0  0  0  0  0  0  0  0  0
   91.3340   31.1000   48.6310 C   0  0  2  0  0  0  0  0  0  0  0  0
   91.4720   32.3000   49.6130 C   0  0  2  0  0  0  0  0  0  0  0  0
   91.7420   33.5760   48.8820 C   0  0  0  0  0  0  0  0  0  0  0  0
   91.9650   34.7340   49.6130 C   0  0  0  0  0  0  0  0  0  0  0  0
   92.6730   31.9310   50.4840 C   0  0  0  0  0  0  0  0  0  0  0  0
   93.4900   30.8780   49.7070 C   0  0  1  0  0  0  0  0  0  0  0  0
   94.7500   31.3810   49.4680 F   0  0  0  0  0  0  0  0  0  0  0  0
   93.6010   29.7070   50.4380 F   0  0  0  0  0  0  0  0  0  0  0  0
   92.7590   30.5810   48.3860 C   0  0  0  0  0  0  0  0  0  0  0  0
   92.0680   34.8560   45.3760 C   0  0  0  0  0  0  0  0  0  0  0  0
   90.7190   35.0310   44.9740 O   0  0  0  0  0  0  0  0  0  0  0  0
   90.7440   35.0820   43.5760 C   0  0  0  0  0  0  0  0  0  0  0  0
   92.4470   37.0560   49.6610 O   0  0  0  0  0  0  0  0  0  0  0  0
  1  2  1  0
  1 17  1  0
  1 26  1  0
  2  3  1  0
  3  4  1  0
  3 23  1  0
  4  5  1  0
  4 16  1  0
  5  6  1  0
  6  7  1  6
  6 14  1  0
  7  8  1  0
  7 13  1  0
  8  9  1  0
  9 10  1  0
 10 11  1  0
 10 12  1  0
 12 13  1  0
 14 15  1  0
 14 22  1  6
 15 16  1  0
 15 18  1  1
 16 17  1  0
 18 19  1  0
 19 20  1  6
 19 21  1  0
 19 22  1  0
 23 24  1  0
 24 25  1  0
M  END
>  <PDB_ID>  (58) 
2qtu

>  <HeavyAtoms>  (58) 
26

>  <MolWt>  (58) 
374.47

>  <SMILES>  (58) 
COCC1CC(O)CC2C1O[C@@H](C1CCC(O)CC1)[C@H]1CC(F)(F)C[C@@H]21

$$$$
1qkm
     RDKit          3D

 20 22  0  0  0  0  0  0  0  0999 V2000
   19.0240    6.9420  114.6830 C   0  0  0  0  0  0  0  0  0  0  0  0
   18.7150    7.2530  116.0120 C   0  0  0  0  0  0  0  0  0  0  0  0
   17.4740    6.8840  116.5100 O   0  0  0  0  0  0  0  0  0  0  0  0
   19.5540    7.9330  116.8530 C   0  0  0  0  0  0  0  0  0  0  0  0
   20.8110    8.3040  116.3680 C   0  0  2  0  0  0  0  0  0  0  0  0
   21.7120    9.0070  117.1070 O   0  0  0  0  0  0  0  0  0  0  0  0
   21.1690    8.0260  115.0360 C   0  0  0  0  0  0  0  0  0  0  0  0
   22.4650    8.4860  114.4820 C   0  0  0  0  0  0  0  0  0  0  0  0
   23.3280    9.0930  115.0980 O   0  0  0  0  0  0  0  0  0  0  0  0
   22.7310    8.1260  113.0680 C   0  0  0  0  0  0  0  0  0  0  0  0
   21.7980    7.4240  112.3740 C   0  0  0  0  0  0  0  0  0  0  0  0
   20.6000    7.0510  112.9140 O   0  0  0  0  0  0  0  0  0  0  0  0
   20.2900    7.3550  114.2140 C   0  0  0  0  0  0  0  0  0  0  0  0
   23.9720    8.4110  112.2590 C   0  0  0  0  0  0  0  0  0  0  0  0
   25.2480    8.3780  112.8180 C   0  0  0  0  0  0  0  0  0  0  0  0
   26.3820    8.6240  112.0620 C   0  0  0  0  0  0  0  0  0  0  0  0
   26.2570    8.9000  110.7170 C   0  0  0  0  0  0  0  0  0  0  0  0
   27.4010    9.1220  109.9700 O   0  0  0  0  0  0  0  0  0  0  0  0
   24.9990    8.9640  110.1140 C   0  0  0  0  0  0  0  0  0  0  0  0
   23.8410    8.7110  110.8910 C   0  0  0  0  0  0  0  0  0  0  0  0
  1  2  1  0
  1 13  1  0
  2  3  1  0
  2  4  1  0
  4  5  1  0
  5  6  1  6
  5  7  1  0
  7  8  1  0
  7 13  1  0
  8  9  1  0
  8 10  1  0
 10 11  1  0
 10 14  1  0
 11 12  1  0
 12 13  1  0
 14 15  1  0
 14 20  1  0
 15 16  1  0
 16 17  1  0
 17 18  1  0
 17 19  1  0
 19 20  1  0
M  END
>  <PDB_ID>  (59) 
1qkm

>  <HeavyAtoms>  (59) 
20

>  <MolWt>  (59) 
286.37

>  <SMILES>  (59) 
OC1CCC(C2COC3CC(O)C[C@H](O)C3C2O)CC1

$$$$
1x76
     RDKit          3D

 19 21  0  0  0  0  0  0  0  0999 V2000
   25.8800   35.9290   41.5540 C   0  0  0  0  0  0  0  0  0  0  0  0
   27.1560   35.5320   42.0840 C   0  0  0  0  0  0  0  0  0  0  0  0
   28.3240   35.6420   41.2630 C   0  0  0  0  0  0  0  0  0  0  0  0
   28.1970   36.1480   39.9180 C   0  0  0  0  0  0  0  0  0  0  0  0
   26.9120   36.5400   39.4040 C   0  0  0  0  0  0  0  0  0  0  0  0
   25.7500   36.4300   40.2220 C   0  0  0  0  0  0  0  0  0  0  0  0
   24.7570   35.8290   42.3360 O   0  0  0  0  0  0  0  0  0  0  0  0
   29.3860   36.3070   39.0130 C   0  0  0  0  0  0  0  0  0  0  0  0
   30.5520   35.5080   39.0090 C   0  0  0  0  0  0  0  0  0  0  0  0
   31.3230   36.1100   37.9800 C   0  0  0  0  0  0  0  0  0  0  0  0
   30.5610   37.2230   37.4440 C   0  0  0  0  0  0  0  0  0  0  0  0
   29.3870   37.3000   38.1050 O   0  0  0  0  0  0  0  0  0  0  0  0
   32.6150   35.8450   37.4170 C   0  0  0  0  0  0  0  0  0  0  0  0
   33.1160   36.6750   36.3540 C   0  0  0  0  0  0  0  0  0  0  0  0
   32.3420   37.7650   35.8480 C   0  0  0  0  0  0  0  0  0  0  0  0
   31.0610   38.0210   36.4110 C   0  0  0  0  0  0  0  0  0  0  0  0
   34.3510   36.4240   35.8170 O   0  0  0  0  0  0  0  0  0  0  0  0
   30.2680   39.1090   35.9240 C   0  0  0  0  0  0  0  0  0  0  0  0
   29.6050   39.9850   35.5670 N   0  0  0  0  0  0  0  0  0  0  0  0
  1  2  1  0
  1  6  1  0
  1  7  1  0
  2  3  1  0
  3  4  1  0
  4  5  1  0
  4  8  1  0
  5  6  1  0
  8  9  1  0
  8 12  1  0
  9 10  1  0
 10 11  1  0
 10 13  1  0
 11 12  1  0
 11 16  1  0
 13 14  1  0
 14 15  1  0
 14 17  1  0
 15 16  1  0
 16 18  1  0
 18 19  1  0
M  END
>  <PDB_ID>  (60) 
1x76

>  <HeavyAtoms>  (60) 
19

>  <MolWt>  (60) 
269.38

>  <SMILES>  (60) 
NCC1CC(O)CC2CC(C3CCC(O)CC3)OC12

$$$$
1x76_lig2
     RDKit          3D

 19 21  0  0  0  0  0  0  0  0999 V2000
   21.4690   30.1280    7.3890 C   0  0  0  0  0  0  0  0  0  0  0  0
   22.7050   30.2870    6.6840 C   0  0  0  0  0  0  0  0  0  0  0  0
   23.9230   29.8700    7.2940 C   0  0  0  0  0  0  0  0  0  0  0  0
   23.8950   29.2960    8.6160 C   0  0  0  0  0  0  0  0  0  0  0  0
   22.6470   29.1420    9.3190 C   0  0  0  0  0  0  0  0  0  0  0  0
   21.4280   29.5590    8.7050 C   0  0  0  0  0  0  0  0  0  0  0  0
   20.2930   30.5290    6.7860 O   0  0  0  0  0  0  0  0  0  0  0  0
   25.1490   28.8390    9.2840 C   0  0  0  0  0  0  0  0  0  0  0  0
   26.4200   29.4320    9.1220 C   0  0  0  0  0  0  0  0  0  0  0  0
   27.2390   28.6320    9.9480 C   0  0  0  0  0  0  0  0  0  0  0  0
   26.4020   27.6080   10.5510 C   0  0  0  0  0  0  0  0  0  0  0  0
   25.1250   27.7800   10.1110 O   0  0  0  0  0  0  0  0  0  0  0  0
   28.6320   28.6480   10.2700 C   0  0  0  0  0  0  0  0  0  0  0  0
   29.1700   27.6680   11.1710 C   0  0  0  0  0  0  0  0  0  0  0  0
   28.3260   26.6690   11.7530 C   0  0  0  0  0  0  0  0  0  0  0  0
   26.9340   26.6600   11.4240 C   0  0  0  0  0  0  0  0  0  0  0  0
   30.5130   27.6920   11.4770 O   0  0  0  0  0  0  0  0  0  0  0  0
   26.0670   25.6690   11.9890 C   0  0  0  0  0  0  0  0  0  0  0  0
   25.3370   24.8780   12.4160 N   0  0  0  0  0  0  0  0  0  0  0  0
  1  2  1  0
  1  6  1  0
  1  7  1  0
  2  3  1  0
  3  4  1  0
  4  5  1  0
  4  8  1  0
  5  6  1  0
  8  9  1  0
  8 12  1  0
  9 10  1  0
 10 11  1  0
 10 13  1  0
 11 12  1  0
 11 16  1  0
 13 14  1  0
 14 15  1  0
 14 17  1  0
 15 16  1  0
 16 18  1  0
 18 19  1  0
M  END
>  <PDB_ID>  (61) 
1x76

>  <HeavyAtoms>  (61) 
19

>  <MolWt>  (61) 
269.38

>  <SMILES>  (61) 
NCC1CC(O)CC2CC(C3CCC(O)CC3)OC12

$$$$
3oll
     RDKit          3D

 20 23  0  0  0  0  0  0  0  0999 V2000
   -8.8100   36.9870   13.2500 C   0  0  0  0  0  0  0  0  0  0  0  0
   -7.5670   36.4120   13.4620 C   0  0  0  0  0  0  0  0  0  0  0  0
   -7.3430   34.9970   13.2210 C   0  0  0  0  0  0  0  0  0  0  0  0
   -6.0830   34.3740   13.4580 O   0  0  0  0  0  0  0  0  0  0  0  0
   -8.4230   34.2380   12.7540 C   0  0  0  0  0  0  0  0  0  0  0  0
   -9.6860   34.8010   12.5000 C   0  0  0  0  0  0  0  0  0  0  0  0
  -10.8480   33.8930   11.9920 C   0  0  0  0  0  0  0  0  0  0  0  0
  -12.2380   34.4910   12.2830 C   0  0  0  0  0  0  0  0  0  0  0  0
  -12.2450   35.9410   11.6740 C   0  0  2  0  0  0  0  0  0  0  0  0
  -11.2790   36.8540   12.4890 C   0  0  1  0  0  0  0  0  0  0  0  0
   -9.8870   36.2450   12.7520 C   0  0  0  0  0  0  0  0  0  0  0  0
  -11.2210   38.3170   11.9390 C   0  0  0  0  0  0  0  0  0  0  0  0
  -12.6240   39.0060   11.7800 C   0  0  0  0  0  0  0  0  0  0  0  0
  -13.5430   38.0660   10.9260 C   0  0  1  0  0  0  0  0  0  0  0  0
  -13.6180   36.6610   11.6300 C   0  0  1  0  0  0  0  0  0  0  0  0
  -14.7980   35.8710   10.9330 C   0  0  0  0  0  0  0  0  0  0  0  0
  -15.7770   37.0260   10.5690 C   0  0  0  0  0  0  0  0  0  0  0  0
  -15.0620   38.3330   10.9870 C   0  0  2  0  0  0  0  0  0  0  0  0
  -15.4180   39.4830   10.2120 O   0  0  0  0  0  0  0  0  0  0  0  0
  -13.0790   37.9970    9.4150 C   0  0  0  0  0  0  0  0  0  0  0  0
  1  2  1  0
  1 11  1  0
  2  3  1  0
  3  4  1  0
  3  5  1  0
  5  6  1  0
  6  7  1  0
  6 11  1  0
  7  8  1  0
  9  8  1  1
  9 10  1  0
  9 15  1  0
 10 11  1  0
 10 12  1  6
 12 13  1  0
 13 14  1  0
 14 15  1  0
 14 18  1  0
 14 20  1  6
 15 16  1  6
 16 17  1  0
 17 18  1  0
 18 19  1  6
M  END
>  <PDB_ID>  (62) 
3oll

>  <HeavyAtoms>  (62) 
20

>  <MolWt>  (62) 
278.44

>  <SMILES>  (62) 
C[C@]12CC[C@@H]3C4CCC(O)CC4CC[C@H]3[C@@H]1CC[C@@H]2O

$$$$
3oll_lig2
     RDKit          3D

 20 23  0  0  0  0  0  0  0  0999 V2000
  -27.5990   26.1130  -14.2190 C   0  0  0  0  0  0  0  0  0  0  0  0
  -27.7290   24.7390  -14.4260 C   0  0  0  0  0  0  0  0  0  0  0  0
  -26.6320   23.8590  -14.2030 C   0  0  0  0  0  0  0  0  0  0  0  0
  -26.6970   22.4600  -14.4360 O   0  0  0  0  0  0  0  0  0  0  0  0
  -25.4200   24.4160  -13.7600 C   0  0  0  0  0  0  0  0  0  0  0  0
  -25.2930   25.7750  -13.4950 C   0  0  0  0  0  0  0  0  0  0  0  0
  -23.9380   26.3470  -12.9920 C   0  0  0  0  0  0  0  0  0  0  0  0
  -23.7390   27.8160  -13.2720 C   0  0  0  0  0  0  0  0  0  0  0  0
  -25.0150   28.5430  -12.6760 C   0  0  2  0  0  0  0  0  0  0  0  0
  -26.2790   28.2010  -13.4970 C   0  0  1  0  0  0  0  0  0  0  0  0
  -26.4410   26.6800  -13.7220 C   0  0  1  0  0  0  0  0  0  0  0  0
  -27.5780   28.8860  -12.9810 C   0  0  0  0  0  0  0  0  0  0  0  0
  -27.4370   30.4120  -12.7620 C   0  0  0  0  0  0  0  0  0  0  0  0
  -26.1790   30.7470  -11.9590 C   0  0  1  0  0  0  0  0  0  0  0  0
  -24.9420   30.0850  -12.6360 C   0  0  1  0  0  0  0  0  0  0  0  0
  -23.6950   30.7230  -11.9340 C   0  0  0  0  0  0  0  0  0  0  0  0
  -24.1870   32.1540  -11.5940 C   0  0  0  0  0  0  0  0  0  0  0  0
  -25.6840   32.1870  -12.0450 C   0  0  2  0  0  0  0  0  0  0  0  0
  -26.4710   33.0900  -11.2230 O   0  0  0  0  0  0  0  0  0  0  0  0
  -26.3650   30.3190  -10.4610 C   0  0  0  0  0  0  0  0  0  0  0  0
  1  2  1  0
 11  1  1  6
  2  3  1  0
  3  4  1  0
  3  5  1  0
  5  6  1  0
  6  7  1  0
  6 11  1  0
  7  8  1  0
  9  8  1  6
  9 10  1  0
  9 15  1  0
 10 11  1  0
 10 12  1  1
 12 13  1  0
 13 14  1  0
 14 15  1  0
 14 18  1  0
 14 20  1  1
 15 16  1  1
 16 17  1  0
 17 18  1  0
 18 19  1  1
M  END
>  <PDB_ID>  (63) 
3oll

>  <HeavyAtoms>  (63) 
20

>  <MolWt>  (63) 
278.44

>  <SMILES>  (63) 
C[C@]12CC[C@H]3[C@@H](CCC4CC(O)CC[C@@H]43)[C@@H]1CC[C@@H]2O

$$$$
2i0g
     RDKit          3D

 21 24  0  0  0  0  0  0  0  0999 V2000
   77.0370   39.8630   67.5790 C   0  0  1  0  0  0  0  0  0  0  0  0
   77.8800   40.8900   68.3520 C   0  0  0  0  0  0  0  0  0  0  0  0
   78.7870   41.7320   67.6420 C   0  0  0  0  0  0  0  0  0  0  0  0
   79.5730   42.6830   68.3470 C   0  0  0  0  0  0  0  0  0  0  0  0
   79.4570   42.7880   69.7490 C   0  0  0  0  0  0  0  0  0  0  0  0
   75.6740   38.5710   72.3300 C   0  0  0  0  0  0  0  0  0  0  0  0
   74.1550   36.3510   71.4500 C   0  0  0  0  0  0  0  0  0  0  0  0
   74.9640   37.0520   70.5380 C   0  0  0  0  0  0  0  0  0  0  0  0
   74.7270   40.6460   67.1340 C   0  0  0  0  0  0  0  0  0  0  0  0
   74.7290   39.8970   68.4920 C   0  0  0  0  0  0  0  0  0  0  0  0
   76.0490   39.0640   68.5110 C   0  0  2  0  0  0  0  0  0  0  0  0
   80.4400   43.4980   67.6880 O   0  0  0  0  0  0  0  0  0  0  0  0
   78.5650   41.9630   70.4420 C   0  0  0  0  0  0  0  0  0  0  0  0
   77.7740   41.0120   69.7530 C   0  0  0  0  0  0  0  0  0  0  0  0
   76.9200   40.2500   70.5140 O   0  0  0  0  0  0  0  0  0  0  0  0
   76.6420   38.9490   69.9620 C   0  0  1  0  0  0  0  0  0  0  0  0
   75.7340   38.1700   70.9620 C   0  0  0  0  0  0  0  0  0  0  0  0
   74.8620   37.8620   73.2410 C   0  0  0  0  0  0  0  0  0  0  0  0
   74.1020   36.7480   72.7960 C   0  0  0  0  0  0  0  0  0  0  0  0
   73.3320   36.0650   73.6600 O   0  0  0  0  0  0  0  0  0  0  0  0
   76.1430   40.5400   66.5290 C   0  0  0  0  0  0  0  0  0  0  0  0
  1  2  1  0
  1 11  1  0
  1 21  1  6
  2  3  1  0
  2 14  1  0
  3  4  1  0
  4  5  1  0
  4 12  1  0
  5 13  1  0
  6 17  1  0
  6 18  1  0
  7  8  1  0
  7 19  1  0
  8 17  1  0
  9 10  1  0
  9 21  1  0
 11 10  1  1
 11 16  1  0
 13 14  1  0
 14 15  1  0
 15 16  1  0
 16 17  1  1
 18 19  1  0
 19 20  1  0
M  END
>  <PDB_ID>  (64) 
2i0g

>  <HeavyAtoms>  (64) 
21

>  <MolWt>  (64) 
294.44

>  <SMILES>  (64) 
OC1CCC([C@@H]2OC3CCC(O)CC3[C@@H]3CCC[C@@H]32)CC1

$$$$
2i0g_lig2
     RDKit          3D

 21 24  0  0  0  0  0  0  0  0999 V2000
   90.7780   32.0790   49.5040 C   0  0  1  0  0  0  0  0  0  0  0  0
   91.2820   33.3200   48.7410 C   0  0  0  0  0  0  0  0  0  0  0  0
   91.5230   34.5320   49.4560 C   0  0  0  0  0  0  0  0  0  0  0  0
   91.9880   35.6850   48.7680 C   0  0  0  0  0  0  0  0  0  0  0  0
   92.2080   35.6280   47.3690 C   0  0  0  0  0  0  0  0  0  0  0  0
   90.4240   30.2030   44.7670 C   0  0  0  0  0  0  0  0  0  0  0  0
   89.2660   27.7940   45.6850 C   0  0  0  0  0  0  0  0  0  0  0  0
   89.4820   28.8520   46.5850 C   0  0  0  0  0  0  0  0  0  0  0  0
   92.6850   30.5950   49.9710 C   0  0  0  0  0  0  0  0  0  0  0  0
   92.0210   30.1020   48.6580 C   0  0  0  0  0  0  0  0  0  0  0  0
   90.6370   30.8130   48.5810 C   0  0  2  0  0  0  0  0  0  0  0  0
   92.2300   36.8420   49.4380 O   0  0  0  0  0  0  0  0  0  0  0  0
   91.9730   34.4370   46.6680 C   0  0  0  0  0  0  0  0  0  0  0  0
   91.5120   33.2770   47.3460 C   0  0  0  0  0  0  0  0  0  0  0  0
   91.3150   32.1420   46.5870 O   0  0  0  0  0  0  0  0  0  0  0  0
   90.2990   31.2590   47.1230 C   0  0  1  0  0  0  0  0  0  0  0  0
   90.0650   30.0720   46.1410 C   0  0  0  0  0  0  0  0  0  0  0  0
   90.2050   29.1410   43.8670 C   0  0  0  0  0  0  0  0  0  0  0  0
   89.6230   27.9350   44.3270 C   0  0  0  0  0  0  0  0  0  0  0  0
   89.4050   26.9170   43.4670 O   0  0  0  0  0  0  0  0  0  0  0  0
   91.7550   31.6520   50.5990 C   0  0  0  0  0  0  0  0  0  0  0  0
  1  2  1  0
  1 11  1  0
  1 21  1  1
  2  3  1  0
  2 14  1  0
  3  4  1  0
  4  5  1  0
  4 12  1  0
  5 13  1  0
  6 17  1  0
  6 18  1  0
  7  8  1  0
  7 19  1  0
  8 17  1  0
  9 10  1  0
  9 21  1  0
 11 10  1  6
 11 16  1  0
 13 14  1  0
 14 15  1  0
 15 16  1  0
 16 17  1  6
 18 19  1  0
 19 20  1  0
M  END
>  <PDB_ID>  (65) 
2i0g

>  <HeavyAtoms>  (65) 
21

>  <MolWt>  (65) 
294.44

>  <SMILES>  (65) 
OC1CCC([C@@H]2OC3CCC(O)CC3[C@@H]3CCC[C@@H]32)CC1

$$$$
2giu
     RDKit          3D

 20 22  0  0  0  0  0  0  0  0999 V2000
   22.9210    9.0370  115.3330 C   0  0  2  0  0  0  0  0  0  0  0  0
   22.4450    8.0850  116.4500 C   0  0  0  0  0  0  0  0  0  0  0  0
   20.9070    8.1950  116.5030 C   0  0  0  0  0  0  0  0  0  0  0  0
   20.3470    7.7940  115.1540 C   0  0  0  0  0  0  0  0  0  0  0  0
   19.2410    7.3180  115.1040 O   0  0  0  0  0  0  0  0  0  0  0  0
   21.1430    8.0220  113.9260 C   0  0  2  0  0  0  0  0  0  0  0  0
   20.4090    7.1960  112.5220 Br  0  0  0  0  0  0  0  0  0  0  0  0
   22.3490    8.6250  113.9990 C   0  0  2  0  0  0  0  0  0  0  0  0
   23.4070    8.7370  112.9720 C   0  0  0  0  0  0  0  0  0  0  0  0
   23.3580    8.6780  111.5750 C   0  0  0  0  0  0  0  0  0  0  0  0
   24.5470    8.8530  110.8570 C   0  0  0  0  0  0  0  0  0  0  0  0
   25.7740    9.0260  111.5250 C   0  0  0  0  0  0  0  0  0  0  0  0
   26.9270    9.1090  110.8390 O   0  0  0  0  0  0  0  0  0  0  0  0
   25.8120    9.0600  112.9240 C   0  0  0  0  0  0  0  0  0  0  0  0
   24.6150    8.9510  113.6350 C   0  0  0  0  0  0  0  0  0  0  0  0
   24.4460    9.0220  115.1340 C   0  0  0  0  0  0  0  0  0  0  0  0
   22.4130   10.4820  115.5210 C   0  0  0  0  0  0  0  0  0  0  0  0
   23.1370   11.2900  116.6040 C   0  0  0  0  0  0  0  0  0  0  0  0
   22.2290   12.2960  117.3190 C   0  0  0  0  0  0  0  0  0  0  0  0
   23.0160   12.8190  118.5400 C   0  0  0  0  0  0  0  0  0  0  0  0
  1  2  1  0
  1  8  1  0
  1 16  1  0
  1 17  1  1
  2  3  1  0
  3  4  1  0
  4  5  1  0
  4  6  1  0
  6  7  1  1
  6  8  1  0
  8  9  1  1
  9 10  1  0
  9 15  1  0
 10 11  1  0
 11 12  1  0
 12 13  1  0
 12 14  1  0
 14 15  1  0
 15 16  1  0
 17 18  1  0
 18 19  1  0
 19 20  1  0
M  END
>  <PDB_ID>  (66) 
2giu

>  <HeavyAtoms>  (66) 
20

>  <MolWt>  (66) 
345.32

>  <SMILES>  (66) 
CCCC[C@@]12CCC(O)[C@H](Br)[C@@H]1C1CCC(O)CC1C2

$$$$
